FoamFile
{
    version     2.0;
    format      ascii;
    class       scalarAverageField;
    object      epsilon;
    note        "Computed assuming turbulence in equilibirum";
}

// * * * * * * * * * * * * * * * * * * * * * * * * * * * * * * * * * * * * * //

// Average
0

(
    // min z
    127607
    127701
    127795
    127891
    127987
    128083
    128180
    128278
    128376
    128475
    128574
    128674
    128775
    128876
    128978
    129080
    129183
    129286
    129390
    129495
    129600
    129706
    129813
    129920
    130028
    130136
    130245
    130354
    130464
    130575
    130686
    130798
    130911
    131024
    131138
    131252
    131367
    131483
    131599
    131716
    131833
    131951
    132070
    132189
    132309
    132430
    132551
    132673
    132795
    132918
    133042
    133166
    133291
    133417
    133543
    133670
    133798
    133926
    134055
    134184
    134315
    134445
    134577
    134709
    134842
    134975
    135109
    135244
    135379
    135515
    135652
    135790
    135928
    136066
    136206
    136346
    136487
    136628
    136770
    136913
    137056
    137200
    137345
    137491
    137637
    137784
    137931
    138080
    138229
    138378
    138529
    138680
    138831
    138984
    139137
    139291
    139445
    139601
    139757
    139913
    140071
    140229
    140388
    140547
    140708
    140869
    141030
    141193
    141356
    141520
    141685
    141850
    142016
    142183
    142351
    142519
    142688
    142858
    143029
    143200
    143372
    143545
    143719
    143893
    144068
    144244
    144421
    144598
    144776
    144955
    145135
    145315
    145497
    145679
    145862
    146045
    146230
    146415
    146601
    146788
    146975
    147164
    147353
    147543
    147734
    147925
    148118
    148311
    148505
    148700
    148896
    149092
    149289
    149488
    149686
    149886
    150087
    150288
    150491
    150694
    150898
    151103
    151308
    151515
    151722
    151930
    152140
    152349
    152560
    152772
    152984
    153198
    153412
    153627
    153843
    154060
    154278
    154497
    154716
    154937
    155158
    155380
    155604
    155828
    156053
    156278
    156505
    156733
    156961
    157191
    157421
    157653
    157885
    158118
    158352
    158588
    158824
    159061
    159298
    159537
    159777
    160018
    160260
    160502
    160746
    160991
    161236
    161483
    161730
    161979
    162228
    162479
    162730
    162983
    163236
    163490
    163746
    164002
    164260
    164518
    164778
    165038
    165300
    165562
    165826
    166090
    166356
    166623
    166890
    167159
    167429
    167700
    167972
    168245
    168519
    168794
    169070
    169347
    169625
    169905
    170185
    170467
    170749
    171033
    171318
    171604
    171891
    172179
    172468
    172759
    173050
    173343
    173637
    173932
    174228
    174525
    174823
    175123
    175423
    175725
    176028
    176332
    176637
    176944
    177251
    177560
    177870
    178181
    178494
    178807
    179122
    179438
    179755
    180074
    180393
    180714
    181036
    181359
    181684
    182010
    182337
    182665
    182995
    183325
    183658
    183991
    184326
    184661
    184999
    185337
    185677
    186018
    186360
    186704
    187049
    187395
    187743
    188092
    188442
    188794
    189147
    189501
    189857
    190214
    190572
    190932
    191293
    191655
    192019
    192385
    192751
    193119
    193489
    193860
    194232
    194606
    194981
    195358
    195736
    196115
    196496
    196878
    197262
    197648
    198034
    198423
    198812
    199204
    199596
    199990
    200386
    200783
    201182
    201583
    201984
    202388
    202793
    203199
    203607
    204017
    204428
    204841
    205255
    205671
    206088
    206507
    206928
    207350
    207774
    208200
    208627
    209056
    209486
    209918
    210352
    210788
    211225
    211664
    212104
    212546
    212990
    213436
    213883
    214332
    214783
    215235
    215690
    216146
    216603
    217063
    217524
    217987
    218452
    218919
    219388
    219858
    220330
    220804
    221280
    221757
    222237
    222718
    223202
    223687
    224174
    224663
    225153
    225646
    226141
    226637
    227136
    227636
    228139
    228643
    229149
    229657
    230168
    230680
    231194
    231711
    232229
    232749
    233272
    233796
    234323
    234851
    235382
    235915
    236449
    236986
    237525
    238067
    238610
    239155
    239703
    240253
    240805
    241359
    241915
    242474
    243035
    243598
    244163
    244730
    245300
    245872
    246446
    247023
    247602
    248183
    248766
    249352
    249940
    250531
    251124
    251719
    252317
    252917
    253519
    254124
    254731
    255341
    255953
    256568
    257185
    257805
    258427
    259052
    259679
    260309
    260941
    261576
    262213
    262853
    263496
    264141
    264789
    265440
    266093
    266749
    267408
    268069
    268733
    269400
    270069
    270741
    271416
    272094
    272774
    273458
    274144
    274833
    275525
    276220
    276917
    277618
    278321
    279027
    279737
    280449
    281164
    281882
    282604
    283328
    284055
    284785
    285519
    286255
    286995
    287737
    288483
    289232
    289984
    290739
    291498
    292259
    293024
    293793
    294564
    295339
    296117
    296898
    297683
    298471
    299262
    300057
    300855
    301657
    302462
    303270
    304082
    304898
    305717
    306540
    307366
    308196
    309029
    309866
    310707
    311551
    312399
    313250
    314106
    314965
    315828
    316695
    317565
    318440
    319318
    320200
    321086
    321976
    322870
    323768
    324669
    325575
    326485
    327399
    328317
    329239
    330165
    331096
    332031
    332969
    333912
    334860
    335811
    336767
    337727
    338692
    339661
    340634
    341612
    342594
    343581
    344572
    345568
    346569
    347574
    348583
    349598
    350617
    351640
    352669
    353702
    354740
    355783
    356831
    357883
    358941
    360003
    361071
    362143
    363221
    364304
    365391
    366484
    367583
    368686
    369794
    370908
    372027
    373152
    374282
    375417
    376558
    377704
    378856
    380013
    381176
    382345
    383519
    384699
    385885
    387076
    388274
    389477
    390686
    391901
    393122
    394349
    395582
    396821
    398067
    399318
    400576
    401840
    403110
    404387
    405670
    406960
    408256
    409559
    410868
    412184
    413506
    414836
    416172
    417514
    418864
    420221
    421584
    422955
    424333
    425717
    427109
    428509
    429915
    431329
    432750
    434179
    435615
    437058
    438510
    439968
    441435
    442909
    444392
    445882
    447380
    448886
    450400
    451922
    453452
    454991
    456538
    458093
    459657
    461229
    462810
    464400
    465998
    467605
    469221
    470845
    472479
    474122
    475773
    477434
    479105
    480784
    482473
    484172
    485880
    487598
    489325
    491062
    492809
    494566
    496334
    498111
    499898
    501696
    503504
    505323
    507152
    508991
    510842
    512703
    514575
    516458
    518352
    520258
    522175
    524103
    526042
    527993
    529956
    531931
    533917
    535915
    537926
    539948
    541983
    544031
    546091
    548163
    550248
    552346
    554457
    556582
    558719
    560869
    563034
    565211
    567402
    569608
    571827
    574060
    576307
    578569
    580845
    583136
    585441
    587762
    590097
    592448
    594813
    597195
    599592
    602004
    604433
    606877
    609338
    611815
    614309
    616820
    619347
    621891
    624453
    627032
    629628
    632242
    634874
    637524
    640193
    642880
    645585
    648310
    651053
    653816
    656598
    659399
    662221
    665062
    667924
    670806
    673709
    676633
    679578
    682544
    685532
    688542
    691574
    694628
    697705
    700804
    703927
    707073
    710242
    713435
    716653
    719894
    723161
    726452
    729769
    733111
    736479
    739873
    743293
    746740
    750214
    753716
    757245
    760802
    764388
    768002
    771645
    775318
    779020
    782752
    786515
    790309
    794134
    797990
    801879
    805800
    809754
    813741
    817761
    821816
    825905
    830030
    834189
    838385
    842617
    846886
    851192
    855536
    859918
    864339
    868799
    873299
    877840
    882422
    887045
    891710
    896418
    901170
    905965
    910805
    915690
    920621
    925598
    930622
    935694
    940815
    945984
    951204
    956475
    961796
    967170
    972597
    978078
    983613
    989204
    994851
    1.00056e+06
    1.00632e+06
    1.01214e+06
    1.01802e+06
    1.02396e+06
    1.02996e+06
    1.03603e+06
    1.04216e+06
    1.04836e+06
    1.05462e+06
    1.06094e+06
    1.06734e+06
    1.0738e+06
    1.08034e+06
    1.08694e+06
    1.09362e+06
    1.10038e+06
    1.1072e+06
    1.11411e+06
    1.12109e+06
    1.12815e+06
    1.13529e+06
    1.14252e+06
    1.14982e+06
    1.15721e+06
    1.16469e+06
    1.17226e+06
    1.17991e+06
    1.18766e+06
    1.1955e+06
    1.20343e+06
    1.21146e+06
    1.21959e+06
    1.22782e+06
    1.23615e+06
    1.24458e+06
    1.25312e+06
    1.26177e+06
    1.27052e+06
    1.27939e+06
    1.28838e+06
    1.29748e+06
    1.3067e+06
    1.31604e+06
    1.3255e+06
    1.33509e+06
    1.34481e+06
    1.35466e+06
    1.36465e+06
    1.37477e+06
    1.38503e+06
    1.39544e+06
    1.40599e+06
    1.41669e+06
    1.42755e+06
    1.43856e+06
    1.44973e+06
    1.46106e+06
    1.47256e+06
    1.48423e+06
    1.49608e+06
    1.5081e+06
    1.52031e+06
    1.53271e+06
    1.54529e+06
    1.55808e+06
    1.57106e+06
    1.58425e+06
    1.59765e+06
    1.61127e+06
    1.62511e+06
    1.63918e+06
    1.65348e+06
    1.66802e+06
    1.68281e+06
    1.69784e+06
    1.71314e+06
    1.7287e+06
    1.74454e+06
    1.76066e+06
    1.77706e+06
    1.79376e+06
    1.81077e+06
    1.82808e+06
    1.84572e+06
    1.8637e+06
    1.88201e+06
    1.90067e+06
    1.9197e+06
    1.9391e+06
    1.95889e+06
    1.97907e+06
    1.99966e+06
    2.02067e+06
    2.04211e+06
    2.06401e+06
    2.08637e+06
    2.10921e+06
    2.13255e+06
    2.15639e+06
    2.18077e+06
    2.2057e+06
    2.23119e+06
    2.25727e+06
    2.28397e+06
    2.31129e+06
    2.33927e+06
    2.36793e+06
    2.39729e+06
    2.42739e+06
    2.45825e+06
    2.4899e+06
    2.52237e+06
    2.55571e+06
    2.58993e+06
    2.62509e+06
    2.66122e+06
    2.69836e+06
    2.73656e+06
    2.77586e+06
    2.81632e+06
    2.85799e+06
    2.90092e+06
    2.94518e+06
    2.99083e+06
    3.03794e+06
    3.08659e+06
    3.13684e+06
    3.18879e+06
    3.24253e+06
    3.29815e+06
    3.35576e+06
    3.41547e+06
    3.4774e+06
    3.54168e+06
    3.60846e+06
    3.67788e+06
    3.75011e+06
    3.82534e+06
    3.90375e+06
    3.98557e+06
    4.07103e+06
    4.16038e+06
    4.2539e+06
    4.35192e+06
    4.45476e+06
    4.56281e+06
    4.67649e+06
    4.79627e+06
    4.92266e+06
    5.05626e+06
    5.19771e+06
    5.34775e+06
    5.50723e+06
    5.6771e+06
    5.85843e+06
    6.05248e+06
    6.26068e+06
    6.48469e+06
    6.72646e+06
    6.98826e+06
    7.27278e+06
    7.58323e+06
    7.92345e+06
    8.29812e+06
    8.71294e+06
    9.17499e+06
    9.69314e+06
    1.02787e+07
    1.09462e+07
    1.1715e+07
    1.26109e+07
    1.26109e+07

    // max z
    127607
    127701
    127795
    127891
    127987
    128083
    128180
    128278
    128376
    128475
    128574
    128674
    128775
    128876
    128978
    129080
    129183
    129286
    129390
    129495
    129600
    129706
    129813
    129920
    130028
    130136
    130245
    130354
    130464
    130575
    130686
    130798
    130911
    131024
    131138
    131252
    131367
    131483
    131599
    131716
    131833
    131951
    132070
    132189
    132309
    132430
    132551
    132673
    132795
    132918
    133042
    133166
    133291
    133417
    133543
    133670
    133798
    133926
    134055
    134184
    134315
    134445
    134577
    134709
    134842
    134975
    135109
    135244
    135379
    135515
    135652
    135790
    135928
    136066
    136206
    136346
    136487
    136628
    136770
    136913
    137056
    137200
    137345
    137491
    137637
    137784
    137931
    138080
    138229
    138378
    138529
    138680
    138831
    138984
    139137
    139291
    139445
    139601
    139757
    139913
    140071
    140229
    140388
    140547
    140708
    140869
    141030
    141193
    141356
    141520
    141685
    141850
    142016
    142183
    142351
    142519
    142688
    142858
    143029
    143200
    143372
    143545
    143719
    143893
    144068
    144244
    144421
    144598
    144776
    144955
    145135
    145315
    145497
    145679
    145862
    146045
    146230
    146415
    146601
    146788
    146975
    147164
    147353
    147543
    147734
    147925
    148118
    148311
    148505
    148700
    148896
    149092
    149289
    149488
    149686
    149886
    150087
    150288
    150491
    150694
    150898
    151103
    151308
    151515
    151722
    151930
    152140
    152349
    152560
    152772
    152984
    153198
    153412
    153627
    153843
    154060
    154278
    154497
    154716
    154937
    155158
    155380
    155604
    155828
    156053
    156278
    156505
    156733
    156961
    157191
    157421
    157653
    157885
    158118
    158352
    158588
    158824
    159061
    159298
    159537
    159777
    160018
    160260
    160502
    160746
    160991
    161236
    161483
    161730
    161979
    162228
    162479
    162730
    162983
    163236
    163490
    163746
    164002
    164260
    164518
    164778
    165038
    165300
    165562
    165826
    166090
    166356
    166623
    166890
    167159
    167429
    167700
    167972
    168245
    168519
    168794
    169070
    169347
    169625
    169905
    170185
    170467
    170749
    171033
    171318
    171604
    171891
    172179
    172468
    172759
    173050
    173343
    173637
    173932
    174228
    174525
    174823
    175123
    175423
    175725
    176028
    176332
    176637
    176944
    177251
    177560
    177870
    178181
    178494
    178807
    179122
    179438
    179755
    180074
    180393
    180714
    181036
    181359
    181684
    182010
    182337
    182665
    182995
    183325
    183658
    183991
    184326
    184661
    184999
    185337
    185677
    186018
    186360
    186704
    187049
    187395
    187743
    188092
    188442
    188794
    189147
    189501
    189857
    190214
    190572
    190932
    191293
    191655
    192019
    192385
    192751
    193119
    193489
    193860
    194232
    194606
    194981
    195358
    195736
    196115
    196496
    196878
    197262
    197648
    198034
    198423
    198812
    199204
    199596
    199990
    200386
    200783
    201182
    201583
    201984
    202388
    202793
    203199
    203607
    204017
    204428
    204841
    205255
    205671
    206088
    206507
    206928
    207350
    207774
    208200
    208627
    209056
    209486
    209918
    210352
    210788
    211225
    211664
    212104
    212546
    212990
    213436
    213883
    214332
    214783
    215235
    215690
    216146
    216603
    217063
    217524
    217987
    218452
    218919
    219388
    219858
    220330
    220804
    221280
    221757
    222237
    222718
    223202
    223687
    224174
    224663
    225153
    225646
    226141
    226637
    227136
    227636
    228139
    228643
    229149
    229657
    230168
    230680
    231194
    231711
    232229
    232749
    233272
    233796
    234323
    234851
    235382
    235915
    236449
    236986
    237525
    238067
    238610
    239155
    239703
    240253
    240805
    241359
    241915
    242474
    243035
    243598
    244163
    244730
    245300
    245872
    246446
    247023
    247602
    248183
    248766
    249352
    249940
    250531
    251124
    251719
    252317
    252917
    253519
    254124
    254731
    255341
    255953
    256568
    257185
    257805
    258427
    259052
    259679
    260309
    260941
    261576
    262213
    262853
    263496
    264141
    264789
    265440
    266093
    266749
    267408
    268069
    268733
    269400
    270069
    270741
    271416
    272094
    272774
    273458
    274144
    274833
    275525
    276220
    276917
    277618
    278321
    279027
    279737
    280449
    281164
    281882
    282604
    283328
    284055
    284785
    285519
    286255
    286995
    287737
    288483
    289232
    289984
    290739
    291498
    292259
    293024
    293793
    294564
    295339
    296117
    296898
    297683
    298471
    299262
    300057
    300855
    301657
    302462
    303270
    304082
    304898
    305717
    306540
    307366
    308196
    309029
    309866
    310707
    311551
    312399
    313250
    314106
    314965
    315828
    316695
    317565
    318440
    319318
    320200
    321086
    321976
    322870
    323768
    324669
    325575
    326485
    327399
    328317
    329239
    330165
    331096
    332031
    332969
    333912
    334860
    335811
    336767
    337727
    338692
    339661
    340634
    341612
    342594
    343581
    344572
    345568
    346569
    347574
    348583
    349598
    350617
    351640
    352669
    353702
    354740
    355783
    356831
    357883
    358941
    360003
    361071
    362143
    363221
    364304
    365391
    366484
    367583
    368686
    369794
    370908
    372027
    373152
    374282
    375417
    376558
    377704
    378856
    380013
    381176
    382345
    383519
    384699
    385885
    387076
    388274
    389477
    390686
    391901
    393122
    394349
    395582
    396821
    398067
    399318
    400576
    401840
    403110
    404387
    405670
    406960
    408256
    409559
    410868
    412184
    413506
    414836
    416172
    417514
    418864
    420221
    421584
    422955
    424333
    425717
    427109
    428509
    429915
    431329
    432750
    434179
    435615
    437058
    438510
    439968
    441435
    442909
    444392
    445882
    447380
    448886
    450400
    451922
    453452
    454991
    456538
    458093
    459657
    461229
    462810
    464400
    465998
    467605
    469221
    470845
    472479
    474122
    475773
    477434
    479105
    480784
    482473
    484172
    485880
    487598
    489325
    491062
    492809
    494566
    496334
    498111
    499898
    501696
    503504
    505323
    507152
    508991
    510842
    512703
    514575
    516458
    518352
    520258
    522175
    524103
    526042
    527993
    529956
    531931
    533917
    535915
    537926
    539948
    541983
    544031
    546091
    548163
    550248
    552346
    554457
    556582
    558719
    560869
    563034
    565211
    567402
    569608
    571827
    574060
    576307
    578569
    580845
    583136
    585441
    587762
    590097
    592448
    594813
    597195
    599592
    602004
    604433
    606877
    609338
    611815
    614309
    616820
    619347
    621891
    624453
    627032
    629628
    632242
    634874
    637524
    640193
    642880
    645585
    648310
    651053
    653816
    656598
    659399
    662221
    665062
    667924
    670806
    673709
    676633
    679578
    682544
    685532
    688542
    691574
    694628
    697705
    700804
    703927
    707073
    710242
    713435
    716653
    719894
    723161
    726452
    729769
    733111
    736479
    739873
    743293
    746740
    750214
    753716
    757245
    760802
    764388
    768002
    771645
    775318
    779020
    782752
    786515
    790309
    794134
    797990
    801879
    805800
    809754
    813741
    817761
    821816
    825905
    830030
    834189
    838385
    842617
    846886
    851192
    855536
    859918
    864339
    868799
    873299
    877840
    882422
    887045
    891710
    896418
    901170
    905965
    910805
    915690
    920621
    925598
    930622
    935694
    940815
    945984
    951204
    956475
    961796
    967170
    972597
    978078
    983613
    989204
    994851
    1.00056e+06
    1.00632e+06
    1.01214e+06
    1.01802e+06
    1.02396e+06
    1.02996e+06
    1.03603e+06
    1.04216e+06
    1.04836e+06
    1.05462e+06
    1.06094e+06
    1.06734e+06
    1.0738e+06
    1.08034e+06
    1.08694e+06
    1.09362e+06
    1.10038e+06
    1.1072e+06
    1.11411e+06
    1.12109e+06
    1.12815e+06
    1.13529e+06
    1.14252e+06
    1.14982e+06
    1.15721e+06
    1.16469e+06
    1.17226e+06
    1.17991e+06
    1.18766e+06
    1.1955e+06
    1.20343e+06
    1.21146e+06
    1.21959e+06
    1.22782e+06
    1.23615e+06
    1.24458e+06
    1.25312e+06
    1.26177e+06
    1.27052e+06
    1.27939e+06
    1.28838e+06
    1.29748e+06
    1.3067e+06
    1.31604e+06
    1.3255e+06
    1.33509e+06
    1.34481e+06
    1.35466e+06
    1.36465e+06
    1.37477e+06
    1.38503e+06
    1.39544e+06
    1.40599e+06
    1.41669e+06
    1.42755e+06
    1.43856e+06
    1.44973e+06
    1.46106e+06
    1.47256e+06
    1.48423e+06
    1.49608e+06
    1.5081e+06
    1.52031e+06
    1.53271e+06
    1.54529e+06
    1.55808e+06
    1.57106e+06
    1.58425e+06
    1.59765e+06
    1.61127e+06
    1.62511e+06
    1.63918e+06
    1.65348e+06
    1.66802e+06
    1.68281e+06
    1.69784e+06
    1.71314e+06
    1.7287e+06
    1.74454e+06
    1.76066e+06
    1.77706e+06
    1.79376e+06
    1.81077e+06
    1.82808e+06
    1.84572e+06
    1.8637e+06
    1.88201e+06
    1.90067e+06
    1.9197e+06
    1.9391e+06
    1.95889e+06
    1.97907e+06
    1.99966e+06
    2.02067e+06
    2.04211e+06
    2.06401e+06
    2.08637e+06
    2.10921e+06
    2.13255e+06
    2.15639e+06
    2.18077e+06
    2.2057e+06
    2.23119e+06
    2.25727e+06
    2.28397e+06
    2.31129e+06
    2.33927e+06
    2.36793e+06
    2.39729e+06
    2.42739e+06
    2.45825e+06
    2.4899e+06
    2.52237e+06
    2.55571e+06
    2.58993e+06
    2.62509e+06
    2.66122e+06
    2.69836e+06
    2.73656e+06
    2.77586e+06
    2.81632e+06
    2.85799e+06
    2.90092e+06
    2.94518e+06
    2.99083e+06
    3.03794e+06
    3.08659e+06
    3.13684e+06
    3.18879e+06
    3.24253e+06
    3.29815e+06
    3.35576e+06
    3.41547e+06
    3.4774e+06
    3.54168e+06
    3.60846e+06
    3.67788e+06
    3.75011e+06
    3.82534e+06
    3.90375e+06
    3.98557e+06
    4.07103e+06
    4.16038e+06
    4.2539e+06
    4.35192e+06
    4.45476e+06
    4.56281e+06
    4.67649e+06
    4.79627e+06
    4.92266e+06
    5.05626e+06
    5.19771e+06
    5.34775e+06
    5.50723e+06
    5.6771e+06
    5.85843e+06
    6.05248e+06
    6.26068e+06
    6.48469e+06
    6.72646e+06
    6.98826e+06
    7.27278e+06
    7.58323e+06
    7.92345e+06
    8.29812e+06
    8.71294e+06
    9.17499e+06
    9.69314e+06
    1.02787e+07
    1.09462e+07
    1.1715e+07
    1.26109e+07
    1.26109e+07
)

// *********************** vim: set ft=cpp et sw=4 : *********************** //
