FoamFile
{
    version     2.0;
    format      ascii;
    class       scalarAverageField;
    object      k;
    note        "From experimental data, scaled for Ubulk = 63 m/s";
}

// * * * * * * * * * * * * * * * * * * * * * * * * * * * * * * * * * * * * * //

// Average
0

(
    // min z
    59.9227
    59.9174
    59.9123
    59.9073
    59.9026
    59.898
    59.8937
    59.8895
    59.8855
    59.8817
    59.8781
    59.8746
    59.8714
    59.8683
    59.8654
    59.8627
    59.8602
    59.8579
    59.8558
    59.8538
    59.8521
    59.8505
    59.8491
    59.8479
    59.8469
    59.846
    59.8454
    59.8449
    59.8446
    59.8445
    59.8446
    59.8448
    59.8453
    59.8459
    59.8467
    59.8477
    59.8489
    59.8502
    59.8518
    59.8535
    59.8554
    59.8575
    59.8597
    59.8622
    59.8648
    59.8676
    59.8706
    59.8738
    59.8771
    59.8806
    59.8843
    59.8882
    59.8923
    59.8966
    59.901
    59.9056
    59.9104
    59.9154
    59.9205
    59.9258
    59.9313
    59.937
    59.9429
    59.9489
    59.9551
    59.9615
    59.9681
    59.9749
    59.9818
    59.9889
    59.9962
    60.0036
    60.0113
    60.0191
    60.0271
    60.0353
    60.0436
    60.0521
    60.0608
    60.0697
    60.0788
    60.088
    60.0974
    60.107
    60.1167
    60.1267
    60.1368
    60.1471
    60.1575
    60.1681
    60.179
    60.1899
    60.2011
    60.2124
    60.2239
    60.2356
    60.2475
    60.2595
    60.2717
    60.2841
    60.2966
    60.3094
    60.3223
    60.3353
    60.3486
    60.362
    60.3756
    60.3894
    60.4033
    60.4174
    60.4317
    60.4461
    60.4608
    60.4756
    60.4905
    60.5057
    60.521
    60.5365
    60.5522
    60.568
    60.584
    60.6002
    60.6165
    60.6331
    60.6498
    60.6666
    60.6837
    60.7009
    60.7182
    60.7358
    60.7535
    60.7714
    60.7895
    60.8077
    60.8261
    60.8447
    60.8634
    60.8823
    60.9014
    60.9207
    60.9401
    60.9597
    60.9794
    60.9994
    61.0195
    61.0397
    61.0602
    61.0808
    61.1016
    61.1225
    61.1437
    61.1649
    61.1864
    61.208
    61.2298
    61.2518
    61.2739
    61.2962
    61.3187
    61.3413
    61.3641
    61.3871
    61.4102
    61.4336
    61.457
    61.4807
    61.5045
    61.5285
    61.5526
    61.577
    61.6014
    61.6261
    61.6509
    61.6759
    61.7011
    61.7264
    61.7519
    61.7775
    61.8034
    61.8294
    61.8555
    61.8818
    61.9083
    61.935
    61.9618
    61.9888
    62.016
    62.0433
    62.0708
    62.0985
    62.1263
    62.1543
    62.1825
    62.2108
    62.2393
    62.2679
    62.2968
    62.3257
    62.3549
    62.3842
    62.4137
    62.4434
    62.4732
    62.5032
    62.5333
    62.5636
    62.5941
    62.6248
    62.6556
    62.6866
    62.7177
    62.749
    62.7805
    62.8121
    62.8439
    62.8759
    62.9081
    62.9404
    62.9728
    63.0055
    63.0383
    63.0712
    63.1043
    63.1376
    63.1711
    63.2047
    63.2385
    63.2724
    63.3066
    63.3408
    63.3753
    63.4099
    63.4447
    63.4796
    63.5147
    63.55
    63.5854
    63.621
    63.6567
    63.6927
    63.7287
    63.765
    63.8014
    63.838
    63.8747
    63.9116
    63.9487
    63.9859
    64.0233
    64.0609
    64.0986
    64.1365
    64.1745
    64.2128
    64.2511
    64.2897
    64.3284
    64.3673
    64.4063
    64.4455
    64.4849
    64.5244
    64.5641
    64.6039
    64.6439
    64.6841
    64.7244
    64.7649
    64.8056
    64.8464
    64.8874
    64.9286
    64.9699
    65.0114
    65.053
    65.0948
    65.1368
    65.1789
    65.2212
    65.2637
    65.3063
    65.3491
    65.3921
    65.4352
    65.4784
    65.5219
    65.5655
    65.6092
    65.6532
    65.6972
    65.7415
    65.7859
    65.8305
    65.8752
    65.9201
    65.9652
    66.0104
    66.0558
    66.1014
    66.1471
    66.1929
    66.239
    66.2852
    66.3315
    66.3781
    66.4248
    66.4716
    66.5186
    66.5658
    66.6131
    66.6606
    66.7083
    66.7561
    66.8041
    66.8522
    66.9005
    66.949
    66.9977
    67.0465
    67.0954
    67.1445
    67.1938
    67.2433
    67.2929
    67.3426
    67.3926
    67.4427
    67.4929
    67.5433
    67.5939
    67.6447
    67.6956
    67.7466
    67.7978
    67.8492
    67.9008
    67.9525
    68.0044
    68.0564
    68.1086
    68.161
    68.2135
    68.2662
    68.319
    68.372
    68.4252
    68.4785
    68.532
    68.5857
    68.6395
    68.6935
    68.7476
    68.8019
    68.8564
    68.911
    68.9658
    69.0207
    69.0759
    69.1311
    69.1866
    69.2422
    69.2979
    69.3538
    69.4099
    69.4662
    69.5226
    69.5791
    69.6359
    69.6928
    69.7498
    69.807
    69.8644
    69.9219
    69.9796
    70.0375
    70.0955
    70.1537
    70.212
    70.2705
    70.3292
    70.388
    70.447
    70.5062
    70.5655
    70.625
    70.6846
    70.7444
    70.8044
    70.8645
    70.9248
    70.9852
    71.0458
    71.1066
    71.1675
    71.2286
    71.2899
    71.3513
    71.4129
    71.4746
    71.5365
    71.5986
    71.6608
    71.7232
    71.7857
    71.8484
    71.9113
    71.9743
    72.0375
    72.1009
    72.1644
    72.228
    72.2919
    72.3559
    72.42
    72.4844
    72.5488
    72.6135
    72.6783
    72.7433
    72.8084
    72.8737
    72.9391
    73.0048
    73.0705
    73.1365
    73.2026
    73.2688
    73.3352
    73.4018
    73.4686
    73.5355
    73.6025
    73.6698
    73.7372
    73.8047
    73.8724
    73.9403
    74.0083
    74.0765
    74.1449
    74.2134
    74.2821
    74.3509
    74.4199
    74.4891
    74.5584
    74.6279
    74.6976
    74.7674
    74.8374
    74.9075
    74.9778
    75.0482
    75.1189
    75.1896
    75.2606
    75.3317
    75.403
    75.4744
    75.546
    75.6177
    75.6896
    75.7617
    75.8339
    75.9063
    75.9789
    76.0516
    76.1245
    76.1975
    76.2707
    76.3441
    76.4176
    76.4913
    76.5652
    76.6392
    76.7133
    76.7877
    76.8622
    76.9368
    77.0116
    77.0866
    77.1618
    77.2371
    77.3125
    77.3881
    77.4639
    77.5399
    77.616
    77.6922
    77.7687
    77.8453
    77.922
    77.9989
    78.076
    78.1533
    78.2307
    78.3082
    78.3859
    78.4638
    78.5419
    78.6201
    78.6984
    78.777
    78.8557
    78.9345
    79.0135
    79.0927
    79.172
    79.2515
    79.3312
    79.411
    79.491
    79.5711
    79.6514
    79.7319
    79.8125
    79.8933
    79.9742
    80.0554
    80.1366
    80.2181
    80.2997
    80.3814
    80.4633
    80.5454
    80.6276
    80.71
    80.7926
    80.8753
    80.9582
    81.0412
    81.1245
    81.2078
    81.2913
    81.375
    81.4589
    81.5429
    81.6271
    81.7114
    81.7959
    81.8806
    81.9654
    82.0504
    82.1355
    82.2208
    82.3063
    82.3919
    82.4777
    82.5636
    82.6497
    82.736
    82.8224
    82.909
    82.9957
    83.0827
    83.1697
    83.257
    83.3444
    83.4319
    83.5196
    83.6075
    83.6955
    83.7837
    83.8721
    83.9606
    84.0493
    84.1382
    84.2272
    84.3163
    84.4056
    84.4951
    84.5848
    84.6746
    84.7646
    84.8547
    84.945
    85.0354
    85.126
    85.2168
    85.3077
    85.3988
    85.4901
    85.5815
    85.6731
    85.7648
    85.8567
    85.9488
    86.041
    86.1334
    86.2259
    86.3186
    86.4115
    86.5045
    86.5977
    86.691
    86.7845
    86.8782
    86.972
    87.066
    87.1601
    87.2544
    87.3489
    87.4435
    87.5383
    87.6332
    87.7284
    87.8236
    87.919
    88.0146
    88.1104
    88.2063
    88.3023
    88.3986
    88.495
    88.5915
    88.6882
    88.7851
    88.8821
    88.9793
    89.0766
    89.1742
    89.2718
    89.3696
    89.4676
    89.5658
    89.6641
    89.7626
    89.8612
    89.96
    90.0589
    90.158
    90.2573
    90.3567
    90.4563
    90.556
    90.6559
    90.756
    90.8562
    90.9566
    91.0571
    91.1578
    91.2587
    91.3597
    91.4609
    91.5622
    91.6637
    91.7654
    91.8672
    91.9692
    92.0713
    92.1736
    92.2761
    92.3787
    92.4815
    92.5844
    92.6875
    92.7907
    92.8941
    92.9977
    93.1014
    93.2053
    93.3093
    93.4135
    93.5179
    93.6224
    93.7271
    93.8319
    93.9369
    94.0421
    94.1474
    94.2529
    94.3585
    94.4643
    94.5702
    94.6763
    94.7826
    94.889
    94.9956
    95.1023
    95.2092
    95.3163
    95.4235
    95.5308
    95.6384
    95.746
    95.8539
    95.9619
    96.07
    96.1784
    96.2868
    96.3955
    96.5042
    96.6132
    96.7223
    96.8316
    96.941
    97.0505
    97.1603
    97.2702
    97.3802
    97.4904
    97.6008
    97.7113
    97.822
    97.9328
    98.0438
    98.1549
    98.2662
    98.3777
    98.4893
    98.6011
    98.713
    98.8251
    98.9374
    99.0498
    99.1623
    99.275
    99.3879
    99.5009
    99.6141
    99.7274
    99.8409
    99.9546
    100.068
    100.182
    100.296
    100.411
    100.525
    100.64
    100.755
    100.869
    100.984
    101.1
    101.215
    101.331
    101.446
    101.562
    101.678
    101.794
    101.91
    102.027
    102.144
    102.26
    102.377
    102.494
    102.612
    102.729
    102.846
    102.964
    103.082
    103.2
    103.318
    103.436
    103.555
    103.673
    103.792
    103.911
    104.03
    104.149
    104.269
    104.388
    104.508
    104.628
    104.748
    104.868
    104.988
    105.109
    105.229
    105.35
    105.471
    105.592
    105.713
    105.835
    105.956
    106.078
    106.2
    106.322
    106.444
    106.566
    106.689
    106.811
    106.934
    107.057
    107.18
    107.303
    107.427
    107.55
    107.674
    107.798
    107.922
    108.046
    108.17
    108.294
    108.419
    108.544
    108.669
    108.794
    108.919
    109.044
    109.17
    109.295
    109.421
    109.547
    109.673
    109.799
    109.926
    110.052
    110.179
    110.306
    110.433
    110.56
    110.687
    110.815
    110.942
    111.07
    111.198
    111.326
    111.454
    111.582
    111.711
    111.839
    111.968
    112.097
    112.226
    112.355
    112.485
    112.614
    112.744
    112.874
    113.004
    113.134
    113.264
    113.395
    113.525
    113.656
    113.787
    113.918
    114.049
    114.18
    114.312
    114.443
    114.575
    114.707
    114.839
    114.971
    115.103
    115.236
    115.368
    115.501
    115.634
    115.767
    115.9
    116.034
    116.167
    116.301
    116.435
    116.568
    116.703
    116.837
    116.971
    117.106
    117.24
    117.375
    117.51
    117.645
    117.78
    117.916
    118.051
    118.187
    118.323
    118.459
    118.595
    118.731
    118.867
    119.004
    119.141
    119.277
    119.414
    119.551
    119.689
    119.826
    119.964
    120.101
    120.239
    120.377
    120.515
    120.653
    120.792
    120.93
    121.069
    121.208
    121.347
    121.486
    121.625
    121.764
    121.904
    122.044
    122.183
    122.323
    122.463
    122.604
    122.744
    122.884
    123.025
    123.166
    123.307
    123.448
    123.589
    123.73
    123.872
    124.013
    124.155
    124.297
    124.439
    124.581
    124.723
    124.866
    125.008
    125.151
    125.294
    125.437
    125.58
    125.723
    125.867
    126.01
    126.154
    126.298
    126.442
    126.586
    126.73
    126.874
    127.019
    127.163
    127.308
    127.453
    127.598
    127.743
    127.889
    128.034
    128.18
    128.325
    128.471
    128.617
    128.763
    128.909
    129.056
    129.202
    129.349
    129.496
    129.643
    129.79
    129.937
    130.084
    130.232
    130.379
    130.527
    130.675
    130.823
    130.971
    131.119
    131.267
    131.416
    131.565
    131.713
    131.862
    132.011
    132.16
    132.31
    132.459
    132.609
    132.758
    132.908
    133.058
    133.208
    133.358
    133.509
    133.659
    133.81
    133.96
    134.111
    134.262
    134.413
    134.564
    134.716
    134.867
    135.019
    135.17
    135.322
    135.474
    135.626
    135.779
    135.931
    136.083
    136.236
    136.389
    136.542
    136.695
    136.848
    137.001
    137.001
    // max z
    59.9227
    59.9174
    59.9123
    59.9073
    59.9026
    59.898
    59.8937
    59.8895
    59.8855
    59.8817
    59.8781
    59.8746
    59.8714
    59.8683
    59.8654
    59.8627
    59.8602
    59.8579
    59.8558
    59.8538
    59.8521
    59.8505
    59.8491
    59.8479
    59.8469
    59.846
    59.8454
    59.8449
    59.8446
    59.8445
    59.8446
    59.8448
    59.8453
    59.8459
    59.8467
    59.8477
    59.8489
    59.8502
    59.8518
    59.8535
    59.8554
    59.8575
    59.8597
    59.8622
    59.8648
    59.8676
    59.8706
    59.8738
    59.8771
    59.8806
    59.8843
    59.8882
    59.8923
    59.8966
    59.901
    59.9056
    59.9104
    59.9154
    59.9205
    59.9258
    59.9313
    59.937
    59.9429
    59.9489
    59.9551
    59.9615
    59.9681
    59.9749
    59.9818
    59.9889
    59.9962
    60.0036
    60.0113
    60.0191
    60.0271
    60.0353
    60.0436
    60.0521
    60.0608
    60.0697
    60.0788
    60.088
    60.0974
    60.107
    60.1167
    60.1267
    60.1368
    60.1471
    60.1575
    60.1681
    60.179
    60.1899
    60.2011
    60.2124
    60.2239
    60.2356
    60.2475
    60.2595
    60.2717
    60.2841
    60.2966
    60.3094
    60.3223
    60.3353
    60.3486
    60.362
    60.3756
    60.3894
    60.4033
    60.4174
    60.4317
    60.4461
    60.4608
    60.4756
    60.4905
    60.5057
    60.521
    60.5365
    60.5522
    60.568
    60.584
    60.6002
    60.6165
    60.6331
    60.6498
    60.6666
    60.6837
    60.7009
    60.7182
    60.7358
    60.7535
    60.7714
    60.7895
    60.8077
    60.8261
    60.8447
    60.8634
    60.8823
    60.9014
    60.9207
    60.9401
    60.9597
    60.9794
    60.9994
    61.0195
    61.0397
    61.0602
    61.0808
    61.1016
    61.1225
    61.1437
    61.1649
    61.1864
    61.208
    61.2298
    61.2518
    61.2739
    61.2962
    61.3187
    61.3413
    61.3641
    61.3871
    61.4102
    61.4336
    61.457
    61.4807
    61.5045
    61.5285
    61.5526
    61.577
    61.6014
    61.6261
    61.6509
    61.6759
    61.7011
    61.7264
    61.7519
    61.7775
    61.8034
    61.8294
    61.8555
    61.8818
    61.9083
    61.935
    61.9618
    61.9888
    62.016
    62.0433
    62.0708
    62.0985
    62.1263
    62.1543
    62.1825
    62.2108
    62.2393
    62.2679
    62.2968
    62.3257
    62.3549
    62.3842
    62.4137
    62.4434
    62.4732
    62.5032
    62.5333
    62.5636
    62.5941
    62.6248
    62.6556
    62.6866
    62.7177
    62.749
    62.7805
    62.8121
    62.8439
    62.8759
    62.9081
    62.9404
    62.9728
    63.0055
    63.0383
    63.0712
    63.1043
    63.1376
    63.1711
    63.2047
    63.2385
    63.2724
    63.3066
    63.3408
    63.3753
    63.4099
    63.4447
    63.4796
    63.5147
    63.55
    63.5854
    63.621
    63.6567
    63.6927
    63.7287
    63.765
    63.8014
    63.838
    63.8747
    63.9116
    63.9487
    63.9859
    64.0233
    64.0609
    64.0986
    64.1365
    64.1745
    64.2128
    64.2511
    64.2897
    64.3284
    64.3673
    64.4063
    64.4455
    64.4849
    64.5244
    64.5641
    64.6039
    64.6439
    64.6841
    64.7244
    64.7649
    64.8056
    64.8464
    64.8874
    64.9286
    64.9699
    65.0114
    65.053
    65.0948
    65.1368
    65.1789
    65.2212
    65.2637
    65.3063
    65.3491
    65.3921
    65.4352
    65.4784
    65.5219
    65.5655
    65.6092
    65.6532
    65.6972
    65.7415
    65.7859
    65.8305
    65.8752
    65.9201
    65.9652
    66.0104
    66.0558
    66.1014
    66.1471
    66.1929
    66.239
    66.2852
    66.3315
    66.3781
    66.4248
    66.4716
    66.5186
    66.5658
    66.6131
    66.6606
    66.7083
    66.7561
    66.8041
    66.8522
    66.9005
    66.949
    66.9977
    67.0465
    67.0954
    67.1445
    67.1938
    67.2433
    67.2929
    67.3426
    67.3926
    67.4427
    67.4929
    67.5433
    67.5939
    67.6447
    67.6956
    67.7466
    67.7978
    67.8492
    67.9008
    67.9525
    68.0044
    68.0564
    68.1086
    68.161
    68.2135
    68.2662
    68.319
    68.372
    68.4252
    68.4785
    68.532
    68.5857
    68.6395
    68.6935
    68.7476
    68.8019
    68.8564
    68.911
    68.9658
    69.0207
    69.0759
    69.1311
    69.1866
    69.2422
    69.2979
    69.3538
    69.4099
    69.4662
    69.5226
    69.5791
    69.6359
    69.6928
    69.7498
    69.807
    69.8644
    69.9219
    69.9796
    70.0375
    70.0955
    70.1537
    70.212
    70.2705
    70.3292
    70.388
    70.447
    70.5062
    70.5655
    70.625
    70.6846
    70.7444
    70.8044
    70.8645
    70.9248
    70.9852
    71.0458
    71.1066
    71.1675
    71.2286
    71.2899
    71.3513
    71.4129
    71.4746
    71.5365
    71.5986
    71.6608
    71.7232
    71.7857
    71.8484
    71.9113
    71.9743
    72.0375
    72.1009
    72.1644
    72.228
    72.2919
    72.3559
    72.42
    72.4844
    72.5488
    72.6135
    72.6783
    72.7433
    72.8084
    72.8737
    72.9391
    73.0048
    73.0705
    73.1365
    73.2026
    73.2688
    73.3352
    73.4018
    73.4686
    73.5355
    73.6025
    73.6698
    73.7372
    73.8047
    73.8724
    73.9403
    74.0083
    74.0765
    74.1449
    74.2134
    74.2821
    74.3509
    74.4199
    74.4891
    74.5584
    74.6279
    74.6976
    74.7674
    74.8374
    74.9075
    74.9778
    75.0482
    75.1189
    75.1896
    75.2606
    75.3317
    75.403
    75.4744
    75.546
    75.6177
    75.6896
    75.7617
    75.8339
    75.9063
    75.9789
    76.0516
    76.1245
    76.1975
    76.2707
    76.3441
    76.4176
    76.4913
    76.5652
    76.6392
    76.7133
    76.7877
    76.8622
    76.9368
    77.0116
    77.0866
    77.1618
    77.2371
    77.3125
    77.3881
    77.4639
    77.5399
    77.616
    77.6922
    77.7687
    77.8453
    77.922
    77.9989
    78.076
    78.1533
    78.2307
    78.3082
    78.3859
    78.4638
    78.5419
    78.6201
    78.6984
    78.777
    78.8557
    78.9345
    79.0135
    79.0927
    79.172
    79.2515
    79.3312
    79.411
    79.491
    79.5711
    79.6514
    79.7319
    79.8125
    79.8933
    79.9742
    80.0554
    80.1366
    80.2181
    80.2997
    80.3814
    80.4633
    80.5454
    80.6276
    80.71
    80.7926
    80.8753
    80.9582
    81.0412
    81.1245
    81.2078
    81.2913
    81.375
    81.4589
    81.5429
    81.6271
    81.7114
    81.7959
    81.8806
    81.9654
    82.0504
    82.1355
    82.2208
    82.3063
    82.3919
    82.4777
    82.5636
    82.6497
    82.736
    82.8224
    82.909
    82.9957
    83.0827
    83.1697
    83.257
    83.3444
    83.4319
    83.5196
    83.6075
    83.6955
    83.7837
    83.8721
    83.9606
    84.0493
    84.1382
    84.2272
    84.3163
    84.4056
    84.4951
    84.5848
    84.6746
    84.7646
    84.8547
    84.945
    85.0354
    85.126
    85.2168
    85.3077
    85.3988
    85.4901
    85.5815
    85.6731
    85.7648
    85.8567
    85.9488
    86.041
    86.1334
    86.2259
    86.3186
    86.4115
    86.5045
    86.5977
    86.691
    86.7845
    86.8782
    86.972
    87.066
    87.1601
    87.2544
    87.3489
    87.4435
    87.5383
    87.6332
    87.7284
    87.8236
    87.919
    88.0146
    88.1104
    88.2063
    88.3023
    88.3986
    88.495
    88.5915
    88.6882
    88.7851
    88.8821
    88.9793
    89.0766
    89.1742
    89.2718
    89.3696
    89.4676
    89.5658
    89.6641
    89.7626
    89.8612
    89.96
    90.0589
    90.158
    90.2573
    90.3567
    90.4563
    90.556
    90.6559
    90.756
    90.8562
    90.9566
    91.0571
    91.1578
    91.2587
    91.3597
    91.4609
    91.5622
    91.6637
    91.7654
    91.8672
    91.9692
    92.0713
    92.1736
    92.2761
    92.3787
    92.4815
    92.5844
    92.6875
    92.7907
    92.8941
    92.9977
    93.1014
    93.2053
    93.3093
    93.4135
    93.5179
    93.6224
    93.7271
    93.8319
    93.9369
    94.0421
    94.1474
    94.2529
    94.3585
    94.4643
    94.5702
    94.6763
    94.7826
    94.889
    94.9956
    95.1023
    95.2092
    95.3163
    95.4235
    95.5308
    95.6384
    95.746
    95.8539
    95.9619
    96.07
    96.1784
    96.2868
    96.3955
    96.5042
    96.6132
    96.7223
    96.8316
    96.941
    97.0505
    97.1603
    97.2702
    97.3802
    97.4904
    97.6008
    97.7113
    97.822
    97.9328
    98.0438
    98.1549
    98.2662
    98.3777
    98.4893
    98.6011
    98.713
    98.8251
    98.9374
    99.0498
    99.1623
    99.275
    99.3879
    99.5009
    99.6141
    99.7274
    99.8409
    99.9546
    100.068
    100.182
    100.296
    100.411
    100.525
    100.64
    100.755
    100.869
    100.984
    101.1
    101.215
    101.331
    101.446
    101.562
    101.678
    101.794
    101.91
    102.027
    102.144
    102.26
    102.377
    102.494
    102.612
    102.729
    102.846
    102.964
    103.082
    103.2
    103.318
    103.436
    103.555
    103.673
    103.792
    103.911
    104.03
    104.149
    104.269
    104.388
    104.508
    104.628
    104.748
    104.868
    104.988
    105.109
    105.229
    105.35
    105.471
    105.592
    105.713
    105.835
    105.956
    106.078
    106.2
    106.322
    106.444
    106.566
    106.689
    106.811
    106.934
    107.057
    107.18
    107.303
    107.427
    107.55
    107.674
    107.798
    107.922
    108.046
    108.17
    108.294
    108.419
    108.544
    108.669
    108.794
    108.919
    109.044
    109.17
    109.295
    109.421
    109.547
    109.673
    109.799
    109.926
    110.052
    110.179
    110.306
    110.433
    110.56
    110.687
    110.815
    110.942
    111.07
    111.198
    111.326
    111.454
    111.582
    111.711
    111.839
    111.968
    112.097
    112.226
    112.355
    112.485
    112.614
    112.744
    112.874
    113.004
    113.134
    113.264
    113.395
    113.525
    113.656
    113.787
    113.918
    114.049
    114.18
    114.312
    114.443
    114.575
    114.707
    114.839
    114.971
    115.103
    115.236
    115.368
    115.501
    115.634
    115.767
    115.9
    116.034
    116.167
    116.301
    116.435
    116.568
    116.703
    116.837
    116.971
    117.106
    117.24
    117.375
    117.51
    117.645
    117.78
    117.916
    118.051
    118.187
    118.323
    118.459
    118.595
    118.731
    118.867
    119.004
    119.141
    119.277
    119.414
    119.551
    119.689
    119.826
    119.964
    120.101
    120.239
    120.377
    120.515
    120.653
    120.792
    120.93
    121.069
    121.208
    121.347
    121.486
    121.625
    121.764
    121.904
    122.044
    122.183
    122.323
    122.463
    122.604
    122.744
    122.884
    123.025
    123.166
    123.307
    123.448
    123.589
    123.73
    123.872
    124.013
    124.155
    124.297
    124.439
    124.581
    124.723
    124.866
    125.008
    125.151
    125.294
    125.437
    125.58
    125.723
    125.867
    126.01
    126.154
    126.298
    126.442
    126.586
    126.73
    126.874
    127.019
    127.163
    127.308
    127.453
    127.598
    127.743
    127.889
    128.034
    128.18
    128.325
    128.471
    128.617
    128.763
    128.909
    129.056
    129.202
    129.349
    129.496
    129.643
    129.79
    129.937
    130.084
    130.232
    130.379
    130.527
    130.675
    130.823
    130.971
    131.119
    131.267
    131.416
    131.565
    131.713
    131.862
    132.011
    132.16
    132.31
    132.459
    132.609
    132.758
    132.908
    133.058
    133.208
    133.358
    133.509
    133.659
    133.81
    133.96
    134.111
    134.262
    134.413
    134.564
    134.716
    134.867
    135.019
    135.17
    135.322
    135.474
    135.626
    135.779
    135.931
    136.083
    136.236
    136.389
    136.542
    136.695
    136.848
    137.001
    137.001
)

// *********************** vim: set ft=cpp et sw=4 : *********************** //
