FoamFile
{
    version     2.0;
    format      ascii;
    class       vectorAverageField;
    object      U;
    note        "From experimental data, scaled for Ubulk = 63 m/s";
}

// * * * * * * * * * * * * * * * * * * * * * * * * * * * * * * * * * * * * * //

// Average
(0 0 0)

(
    // min z
    (77.4293 0 0)
    (77.4165 0 0)
    (77.4037 0 0)
    (77.3909 0 0)
    (77.3781 0 0)
    (77.3652 0 0)
    (77.3524 0 0)
    (77.3395 0 0)
    (77.3266 0 0)
    (77.3138 0 0)
    (77.3009 0 0)
    (77.288 0 0)
    (77.2751 0 0)
    (77.2621 0 0)
    (77.2492 0 0)
    (77.2363 0 0)
    (77.2233 0 0)
    (77.2103 0 0)
    (77.1974 0 0)
    (77.1844 0 0)
    (77.1714 0 0)
    (77.1584 0 0)
    (77.1453 0 0)
    (77.1323 0 0)
    (77.1193 0 0)
    (77.1062 0 0)
    (77.0931 0 0)
    (77.0801 0 0)
    (77.067 0 0)
    (77.0539 0 0)
    (77.0408 0 0)
    (77.0276 0 0)
    (77.0145 0 0)
    (77.0014 0 0)
    (76.9882 0 0)
    (76.975 0 0)
    (76.9619 0 0)
    (76.9487 0 0)
    (76.9355 0 0)
    (76.9223 0 0)
    (76.909 0 0)
    (76.8958 0 0)
    (76.8826 0 0)
    (76.8693 0 0)
    (76.856 0 0)
    (76.8428 0 0)
    (76.8295 0 0)
    (76.8162 0 0)
    (76.8029 0 0)
    (76.7895 0 0)
    (76.7762 0 0)
    (76.7628 0 0)
    (76.7495 0 0)
    (76.7361 0 0)
    (76.7227 0 0)
    (76.7093 0 0)
    (76.6959 0 0)
    (76.6825 0 0)
    (76.6691 0 0)
    (76.6556 0 0)
    (76.6422 0 0)
    (76.6287 0 0)
    (76.6152 0 0)
    (76.6017 0 0)
    (76.5882 0 0)
    (76.5747 0 0)
    (76.5612 0 0)
    (76.5477 0 0)
    (76.5341 0 0)
    (76.5205 0 0)
    (76.507 0 0)
    (76.4934 0 0)
    (76.4798 0 0)
    (76.4662 0 0)
    (76.4526 0 0)
    (76.4389 0 0)
    (76.4253 0 0)
    (76.4116 0 0)
    (76.3979 0 0)
    (76.3843 0 0)
    (76.3706 0 0)
    (76.3569 0 0)
    (76.3431 0 0)
    (76.3294 0 0)
    (76.3157 0 0)
    (76.3019 0 0)
    (76.2881 0 0)
    (76.2744 0 0)
    (76.2606 0 0)
    (76.2468 0 0)
    (76.2329 0 0)
    (76.2191 0 0)
    (76.2053 0 0)
    (76.1914 0 0)
    (76.1775 0 0)
    (76.1637 0 0)
    (76.1498 0 0)
    (76.1359 0 0)
    (76.1219 0 0)
    (76.108 0 0)
    (76.0941 0 0)
    (76.0801 0 0)
    (76.0661 0 0)
    (76.0521 0 0)
    (76.0381 0 0)
    (76.0241 0 0)
    (76.0101 0 0)
    (75.9961 0 0)
    (75.982 0 0)
    (75.968 0 0)
    (75.9539 0 0)
    (75.9398 0 0)
    (75.9257 0 0)
    (75.9116 0 0)
    (75.8975 0 0)
    (75.8833 0 0)
    (75.8692 0 0)
    (75.855 0 0)
    (75.8408 0 0)
    (75.8266 0 0)
    (75.8124 0 0)
    (75.7982 0 0)
    (75.784 0 0)
    (75.7697 0 0)
    (75.7555 0 0)
    (75.7412 0 0)
    (75.7269 0 0)
    (75.7126 0 0)
    (75.6983 0 0)
    (75.684 0 0)
    (75.6696 0 0)
    (75.6553 0 0)
    (75.6409 0 0)
    (75.6265 0 0)
    (75.6121 0 0)
    (75.5977 0 0)
    (75.5833 0 0)
    (75.5688 0 0)
    (75.5544 0 0)
    (75.5399 0 0)
    (75.5255 0 0)
    (75.511 0 0)
    (75.4965 0 0)
    (75.4819 0 0)
    (75.4674 0 0)
    (75.4529 0 0)
    (75.4383 0 0)
    (75.4237 0 0)
    (75.4091 0 0)
    (75.3945 0 0)
    (75.3799 0 0)
    (75.3653 0 0)
    (75.3506 0 0)
    (75.336 0 0)
    (75.3213 0 0)
    (75.3066 0 0)
    (75.2919 0 0)
    (75.2772 0 0)
    (75.2624 0 0)
    (75.2477 0 0)
    (75.2329 0 0)
    (75.2182 0 0)
    (75.2034 0 0)
    (75.1886 0 0)
    (75.1737 0 0)
    (75.1589 0 0)
    (75.1441 0 0)
    (75.1292 0 0)
    (75.1143 0 0)
    (75.0994 0 0)
    (75.0845 0 0)
    (75.0696 0 0)
    (75.0546 0 0)
    (75.0397 0 0)
    (75.0247 0 0)
    (75.0097 0 0)
    (74.9947 0 0)
    (74.9797 0 0)
    (74.9647 0 0)
    (74.9497 0 0)
    (74.9346 0 0)
    (74.9195 0 0)
    (74.9044 0 0)
    (74.8893 0 0)
    (74.8742 0 0)
    (74.8591 0 0)
    (74.8439 0 0)
    (74.8288 0 0)
    (74.8136 0 0)
    (74.7984 0 0)
    (74.7832 0 0)
    (74.768 0 0)
    (74.7527 0 0)
    (74.7375 0 0)
    (74.7222 0 0)
    (74.7069 0 0)
    (74.6916 0 0)
    (74.6763 0 0)
    (74.6609 0 0)
    (74.6456 0 0)
    (74.6302 0 0)
    (74.6148 0 0)
    (74.5994 0 0)
    (74.584 0 0)
    (74.5686 0 0)
    (74.5531 0 0)
    (74.5377 0 0)
    (74.5222 0 0)
    (74.5067 0 0)
    (74.4912 0 0)
    (74.4757 0 0)
    (74.4601 0 0)
    (74.4446 0 0)
    (74.429 0 0)
    (74.4134 0 0)
    (74.3978 0 0)
    (74.3822 0 0)
    (74.3665 0 0)
    (74.3509 0 0)
    (74.3352 0 0)
    (74.3195 0 0)
    (74.3038 0 0)
    (74.2881 0 0)
    (74.2723 0 0)
    (74.2566 0 0)
    (74.2408 0 0)
    (74.225 0 0)
    (74.2092 0 0)
    (74.1934 0 0)
    (74.1775 0 0)
    (74.1617 0 0)
    (74.1458 0 0)
    (74.1299 0 0)
    (74.114 0 0)
    (74.0981 0 0)
    (74.0821 0 0)
    (74.0662 0 0)
    (74.0502 0 0)
    (74.0342 0 0)
    (74.0182 0 0)
    (74.0021 0 0)
    (73.9861 0 0)
    (73.97 0 0)
    (73.954 0 0)
    (73.9379 0 0)
    (73.9217 0 0)
    (73.9056 0 0)
    (73.8894 0 0)
    (73.8733 0 0)
    (73.8571 0 0)
    (73.8409 0 0)
    (73.8247 0 0)
    (73.8084 0 0)
    (73.7922 0 0)
    (73.7759 0 0)
    (73.7596 0 0)
    (73.7433 0 0)
    (73.7269 0 0)
    (73.7106 0 0)
    (73.6942 0 0)
    (73.6778 0 0)
    (73.6614 0 0)
    (73.645 0 0)
    (73.6286 0 0)
    (73.6121 0 0)
    (73.5956 0 0)
    (73.5791 0 0)
    (73.5626 0 0)
    (73.5461 0 0)
    (73.5295 0 0)
    (73.513 0 0)
    (73.4964 0 0)
    (73.4798 0 0)
    (73.4631 0 0)
    (73.4465 0 0)
    (73.4298 0 0)
    (73.4132 0 0)
    (73.3965 0 0)
    (73.3797 0 0)
    (73.363 0 0)
    (73.3462 0 0)
    (73.3295 0 0)
    (73.3127 0 0)
    (73.2958 0 0)
    (73.279 0 0)
    (73.2621 0 0)
    (73.2453 0 0)
    (73.2284 0 0)
    (73.2115 0 0)
    (73.1945 0 0)
    (73.1776 0 0)
    (73.1606 0 0)
    (73.1436 0 0)
    (73.1266 0 0)
    (73.1096 0 0)
    (73.0925 0 0)
    (73.0754 0 0)
    (73.0583 0 0)
    (73.0412 0 0)
    (73.0241 0 0)
    (73.007 0 0)
    (72.9898 0 0)
    (72.9726 0 0)
    (72.9554 0 0)
    (72.9381 0 0)
    (72.9209 0 0)
    (72.9036 0 0)
    (72.8863 0 0)
    (72.869 0 0)
    (72.8517 0 0)
    (72.8343 0 0)
    (72.8169 0 0)
    (72.7995 0 0)
    (72.7821 0 0)
    (72.7647 0 0)
    (72.7472 0 0)
    (72.7297 0 0)
    (72.7122 0 0)
    (72.6947 0 0)
    (72.6772 0 0)
    (72.6596 0 0)
    (72.642 0 0)
    (72.6244 0 0)
    (72.6068 0 0)
    (72.5891 0 0)
    (72.5715 0 0)
    (72.5538 0 0)
    (72.536 0 0)
    (72.5183 0 0)
    (72.5005 0 0)
    (72.4828 0 0)
    (72.465 0 0)
    (72.4471 0 0)
    (72.4293 0 0)
    (72.4114 0 0)
    (72.3935 0 0)
    (72.3756 0 0)
    (72.3577 0 0)
    (72.3397 0 0)
    (72.3217 0 0)
    (72.3037 0 0)
    (72.2857 0 0)
    (72.2677 0 0)
    (72.2496 0 0)
    (72.2315 0 0)
    (72.2134 0 0)
    (72.1953 0 0)
    (72.1771 0 0)
    (72.1589 0 0)
    (72.1407 0 0)
    (72.1225 0 0)
    (72.1042 0 0)
    (72.086 0 0)
    (72.0677 0 0)
    (72.0493 0 0)
    (72.031 0 0)
    (72.0126 0 0)
    (71.9942 0 0)
    (71.9758 0 0)
    (71.9574 0 0)
    (71.9389 0 0)
    (71.9204 0 0)
    (71.9019 0 0)
    (71.8834 0 0)
    (71.8648 0 0)
    (71.8462 0 0)
    (71.8276 0 0)
    (71.809 0 0)
    (71.7904 0 0)
    (71.7717 0 0)
    (71.753 0 0)
    (71.7342 0 0)
    (71.7155 0 0)
    (71.6967 0 0)
    (71.6779 0 0)
    (71.6591 0 0)
    (71.6402 0 0)
    (71.6214 0 0)
    (71.6025 0 0)
    (71.5835 0 0)
    (71.5646 0 0)
    (71.5456 0 0)
    (71.5266 0 0)
    (71.5076 0 0)
    (71.4885 0 0)
    (71.4695 0 0)
    (71.4504 0 0)
    (71.4312 0 0)
    (71.4121 0 0)
    (71.3929 0 0)
    (71.3737 0 0)
    (71.3545 0 0)
    (71.3352 0 0)
    (71.3159 0 0)
    (71.2966 0 0)
    (71.2773 0 0)
    (71.2579 0 0)
    (71.2385 0 0)
    (71.2191 0 0)
    (71.1997 0 0)
    (71.1802 0 0)
    (71.1607 0 0)
    (71.1412 0 0)
    (71.1216 0 0)
    (71.1021 0 0)
    (71.0825 0 0)
    (71.0628 0 0)
    (71.0432 0 0)
    (71.0235 0 0)
    (71.0038 0 0)
    (70.9841 0 0)
    (70.9643 0 0)
    (70.9445 0 0)
    (70.9247 0 0)
    (70.9048 0 0)
    (70.885 0 0)
    (70.865 0 0)
    (70.8451 0 0)
    (70.8252 0 0)
    (70.8052 0 0)
    (70.7852 0 0)
    (70.7651 0 0)
    (70.745 0 0)
    (70.7249 0 0)
    (70.7048 0 0)
    (70.6846 0 0)
    (70.6645 0 0)
    (70.6442 0 0)
    (70.624 0 0)
    (70.6037 0 0)
    (70.5834 0 0)
    (70.5631 0 0)
    (70.5427 0 0)
    (70.5223 0 0)
    (70.5019 0 0)
    (70.4815 0 0)
    (70.461 0 0)
    (70.4405 0 0)
    (70.4199 0 0)
    (70.3994 0 0)
    (70.3788 0 0)
    (70.3581 0 0)
    (70.3375 0 0)
    (70.3168 0 0)
    (70.2961 0 0)
    (70.2753 0 0)
    (70.2545 0 0)
    (70.2337 0 0)
    (70.2129 0 0)
    (70.192 0 0)
    (70.1711 0 0)
    (70.1501 0 0)
    (70.1292 0 0)
    (70.1082 0 0)
    (70.0871 0 0)
    (70.0661 0 0)
    (70.045 0 0)
    (70.0239 0 0)
    (70.0027 0 0)
    (69.9815 0 0)
    (69.9603 0 0)
    (69.939 0 0)
    (69.9177 0 0)
    (69.8964 0 0)
    (69.8751 0 0)
    (69.8537 0 0)
    (69.8323 0 0)
    (69.8108 0 0)
    (69.7893 0 0)
    (69.7678 0 0)
    (69.7463 0 0)
    (69.7247 0 0)
    (69.7031 0 0)
    (69.6814 0 0)
    (69.6597 0 0)
    (69.638 0 0)
    (69.6163 0 0)
    (69.5945 0 0)
    (69.5727 0 0)
    (69.5508 0 0)
    (69.5289 0 0)
    (69.507 0 0)
    (69.485 0 0)
    (69.463 0 0)
    (69.441 0 0)
    (69.4189 0 0)
    (69.3969 0 0)
    (69.3747 0 0)
    (69.3525 0 0)
    (69.3303 0 0)
    (69.3081 0 0)
    (69.2858 0 0)
    (69.2635 0 0)
    (69.2412 0 0)
    (69.2188 0 0)
    (69.1964 0 0)
    (69.1739 0 0)
    (69.1514 0 0)
    (69.1289 0 0)
    (69.1063 0 0)
    (69.0837 0 0)
    (69.0611 0 0)
    (69.0384 0 0)
    (69.0157 0 0)
    (68.9929 0 0)
    (68.9702 0 0)
    (68.9473 0 0)
    (68.9245 0 0)
    (68.9016 0 0)
    (68.8786 0 0)
    (68.8556 0 0)
    (68.8326 0 0)
    (68.8096 0 0)
    (68.7865 0 0)
    (68.7633 0 0)
    (68.7402 0 0)
    (68.717 0 0)
    (68.6937 0 0)
    (68.6704 0 0)
    (68.6471 0 0)
    (68.6237 0 0)
    (68.6003 0 0)
    (68.5769 0 0)
    (68.5534 0 0)
    (68.5298 0 0)
    (68.5063 0 0)
    (68.4826 0 0)
    (68.459 0 0)
    (68.4353 0 0)
    (68.4116 0 0)
    (68.3878 0 0)
    (68.364 0 0)
    (68.3401 0 0)
    (68.3162 0 0)
    (68.2923 0 0)
    (68.2683 0 0)
    (68.2443 0 0)
    (68.2202 0 0)
    (68.1961 0 0)
    (68.1719 0 0)
    (68.1477 0 0)
    (68.1235 0 0)
    (68.0992 0 0)
    (68.0749 0 0)
    (68.0505 0 0)
    (68.0261 0 0)
    (68.0017 0 0)
    (67.9772 0 0)
    (67.9526 0 0)
    (67.928 0 0)
    (67.9034 0 0)
    (67.8787 0 0)
    (67.854 0 0)
    (67.8292 0 0)
    (67.8044 0 0)
    (67.7795 0 0)
    (67.7546 0 0)
    (67.7297 0 0)
    (67.7047 0 0)
    (67.6796 0 0)
    (67.6545 0 0)
    (67.6294 0 0)
    (67.6042 0 0)
    (67.579 0 0)
    (67.5537 0 0)
    (67.5284 0 0)
    (67.503 0 0)
    (67.4776 0 0)
    (67.4521 0 0)
    (67.4266 0 0)
    (67.401 0 0)
    (67.3754 0 0)
    (67.3498 0 0)
    (67.3241 0 0)
    (67.2983 0 0)
    (67.2725 0 0)
    (67.2466 0 0)
    (67.2207 0 0)
    (67.1948 0 0)
    (67.1687 0 0)
    (67.1427 0 0)
    (67.1166 0 0)
    (67.0904 0 0)
    (67.0642 0 0)
    (67.0379 0 0)
    (67.0116 0 0)
    (66.9853 0 0)
    (66.9588 0 0)
    (66.9324 0 0)
    (66.9058 0 0)
    (66.8793 0 0)
    (66.8526 0 0)
    (66.8259 0 0)
    (66.7992 0 0)
    (66.7724 0 0)
    (66.7456 0 0)
    (66.7187 0 0)
    (66.6917 0 0)
    (66.6647 0 0)
    (66.6377 0 0)
    (66.6105 0 0)
    (66.5834 0 0)
    (66.5561 0 0)
    (66.5289 0 0)
    (66.5015 0 0)
    (66.4741 0 0)
    (66.4467 0 0)
    (66.4192 0 0)
    (66.3916 0 0)
    (66.364 0 0)
    (66.3363 0 0)
    (66.3086 0 0)
    (66.2808 0 0)
    (66.2529 0 0)
    (66.225 0 0)
    (66.197 0 0)
    (66.169 0 0)
    (66.1409 0 0)
    (66.1127 0 0)
    (66.0845 0 0)
    (66.0563 0 0)
    (66.0279 0 0)
    (65.9995 0 0)
    (65.9711 0 0)
    (65.9426 0 0)
    (65.914 0 0)
    (65.8853 0 0)
    (65.8566 0 0)
    (65.8279 0 0)
    (65.799 0 0)
    (65.7701 0 0)
    (65.7412 0 0)
    (65.7122 0 0)
    (65.6831 0 0)
    (65.6539 0 0)
    (65.6247 0 0)
    (65.5955 0 0)
    (65.5661 0 0)
    (65.5367 0 0)
    (65.5072 0 0)
    (65.4777 0 0)
    (65.4481 0 0)
    (65.4184 0 0)
    (65.3887 0 0)
    (65.3588 0 0)
    (65.329 0 0)
    (65.299 0 0)
    (65.269 0 0)
    (65.2389 0 0)
    (65.2088 0 0)
    (65.1785 0 0)
    (65.1482 0 0)
    (65.1179 0 0)
    (65.0874 0 0)
    (65.0569 0 0)
    (65.0263 0 0)
    (64.9957 0 0)
    (64.965 0 0)
    (64.9342 0 0)
    (64.9033 0 0)
    (64.8724 0 0)
    (64.8413 0 0)
    (64.8102 0 0)
    (64.7791 0 0)
    (64.7478 0 0)
    (64.7165 0 0)
    (64.6851 0 0)
    (64.6537 0 0)
    (64.6221 0 0)
    (64.5905 0 0)
    (64.5588 0 0)
    (64.527 0 0)
    (64.4951 0 0)
    (64.4632 0 0)
    (64.4312 0 0)
    (64.3991 0 0)
    (64.3669 0 0)
    (64.3347 0 0)
    (64.3023 0 0)
    (64.2699 0 0)
    (64.2374 0 0)
    (64.2048 0 0)
    (64.1722 0 0)
    (64.1394 0 0)
    (64.1066 0 0)
    (64.0737 0 0)
    (64.0406 0 0)
    (64.0076 0 0)
    (63.9744 0 0)
    (63.9411 0 0)
    (63.9078 0 0)
    (63.8743 0 0)
    (63.8408 0 0)
    (63.8072 0 0)
    (63.7735 0 0)
    (63.7397 0 0)
    (63.7058 0 0)
    (63.6719 0 0)
    (63.6378 0 0)
    (63.6037 0 0)
    (63.5694 0 0)
    (63.5351 0 0)
    (63.5007 0 0)
    (63.4661 0 0)
    (63.4315 0 0)
    (63.3968 0 0)
    (63.362 0 0)
    (63.3271 0 0)
    (63.2921 0 0)
    (63.257 0 0)
    (63.2218 0 0)
    (63.1865 0 0)
    (63.1511 0 0)
    (63.1156 0 0)
    (63.0801 0 0)
    (63.0444 0 0)
    (63.0086 0 0)
    (62.9727 0 0)
    (62.9367 0 0)
    (62.9006 0 0)
    (62.8644 0 0)
    (62.8281 0 0)
    (62.7917 0 0)
    (62.7551 0 0)
    (62.7185 0 0)
    (62.6818 0 0)
    (62.6449 0 0)
    (62.608 0 0)
    (62.5709 0 0)
    (62.5338 0 0)
    (62.4965 0 0)
    (62.4591 0 0)
    (62.4216 0 0)
    (62.384 0 0)
    (62.3463 0 0)
    (62.3084 0 0)
    (62.2704 0 0)
    (62.2324 0 0)
    (62.1942 0 0)
    (62.1559 0 0)
    (62.1174 0 0)
    (62.0789 0 0)
    (62.0402 0 0)
    (62.0014 0 0)
    (61.9625 0 0)
    (61.9235 0 0)
    (61.8843 0 0)
    (61.8451 0 0)
    (61.8056 0 0)
    (61.7661 0 0)
    (61.7265 0 0)
    (61.6867 0 0)
    (61.6468 0 0)
    (61.6067 0 0)
    (61.5665 0 0)
    (61.5262 0 0)
    (61.4858 0 0)
    (61.4452 0 0)
    (61.4045 0 0)
    (61.3637 0 0)
    (61.3227 0 0)
    (61.2816 0 0)
    (61.2403 0 0)
    (61.1989 0 0)
    (61.1574 0 0)
    (61.1157 0 0)
    (61.0739 0 0)
    (61.0319 0 0)
    (60.9898 0 0)
    (60.9476 0 0)
    (60.9052 0 0)
    (60.8626 0 0)
    (60.8199 0 0)
    (60.7771 0 0)
    (60.7341 0 0)
    (60.6909 0 0)
    (60.6476 0 0)
    (60.6042 0 0)
    (60.5605 0 0)
    (60.5168 0 0)
    (60.4728 0 0)
    (60.4287 0 0)
    (60.3845 0 0)
    (60.3401 0 0)
    (60.2955 0 0)
    (60.2507 0 0)
    (60.2058 0 0)
    (60.1607 0 0)
    (60.1155 0 0)
    (60.0701 0 0)
    (60.0245 0 0)
    (59.9787 0 0)
    (59.9327 0 0)
    (59.8866 0 0)
    (59.8403 0 0)
    (59.7938 0 0)
    (59.7472 0 0)
    (59.7003 0 0)
    (59.6533 0 0)
    (59.6061 0 0)
    (59.5587 0 0)
    (59.5111 0 0)
    (59.4633 0 0)
    (59.4153 0 0)
    (59.3672 0 0)
    (59.3188 0 0)
    (59.2702 0 0)
    (59.2215 0 0)
    (59.1725 0 0)
    (59.1233 0 0)
    (59.074 0 0)
    (59.0244 0 0)
    (58.9746 0 0)
    (58.9246 0 0)
    (58.8744 0 0)
    (58.8239 0 0)
    (58.7733 0 0)
    (58.7224 0 0)
    (58.6713 0 0)
    (58.62 0 0)
    (58.5685 0 0)
    (58.5167 0 0)
    (58.4647 0 0)
    (58.4125 0 0)
    (58.36 0 0)
    (58.3073 0 0)
    (58.2544 0 0)
    (58.2012 0 0)
    (58.1478 0 0)
    (58.0941 0 0)
    (58.0402 0 0)
    (57.986 0 0)
    (57.9316 0 0)
    (57.8769 0 0)
    (57.822 0 0)
    (57.7668 0 0)
    (57.7113 0 0)
    (57.6556 0 0)
    (57.5996 0 0)
    (57.5433 0 0)
    (57.4867 0 0)
    (57.4299 0 0)
    (57.3728 0 0)
    (57.3154 0 0)
    (57.2577 0 0)
    (57.1997 0 0)
    (57.1414 0 0)
    (57.0828 0 0)
    (57.024 0 0)
    (56.9648 0 0)
    (56.9053 0 0)
    (56.8455 0 0)
    (56.7853 0 0)
    (56.7249 0 0)
    (56.6641 0 0)
    (56.603 0 0)
    (56.5416 0 0)
    (56.4798 0 0)
    (56.4177 0 0)
    (56.3553 0 0)
    (56.2925 0 0)
    (56.2293 0 0)
    (56.1658 0 0)
    (56.102 0 0)
    (56.0377 0 0)
    (55.9731 0 0)
    (55.9082 0 0)
    (55.8428 0 0)
    (55.7771 0 0)
    (55.7109 0 0)
    (55.6444 0 0)
    (55.5775 0 0)
    (55.5101 0 0)
    (55.4424 0 0)
    (55.3742 0 0)
    (55.3057 0 0)
    (55.2367 0 0)
    (55.1672 0 0)
    (55.0973 0 0)
    (55.027 0 0)
    (54.9562 0 0)
    (54.885 0 0)
    (54.8133 0 0)
    (54.7411 0 0)
    (54.6684 0 0)
    (54.5953 0 0)
    (54.5217 0 0)
    (54.4475 0 0)
    (54.3729 0 0)
    (54.2977 0 0)
    (54.2221 0 0)
    (54.1458 0 0)
    (54.0691 0 0)
    (53.9918 0 0)
    (53.9139 0 0)
    (53.8355 0 0)
    (53.7565 0 0)
    (53.6769 0 0)
    (53.5967 0 0)
    (53.5159 0 0)
    (53.4345 0 0)
    (53.3525 0 0)
    (53.2698 0 0)
    (53.1865 0 0)
    (53.1026 0 0)
    (53.0179 0 0)
    (52.9326 0 0)
    (52.8466 0 0)
    (52.7599 0 0)
    (52.6725 0 0)
    (52.5843 0 0)
    (52.4954 0 0)
    (52.4057 0 0)
    (52.3153 0 0)
    (52.224 0 0)
    (52.132 0 0)
    (52.0392 0 0)
    (51.9455 0 0)
    (51.8509 0 0)
    (51.7555 0 0)
    (51.6592 0 0)
    (51.562 0 0)
    (51.4639 0 0)
    (51.3648 0 0)
    (51.2647 0 0)
    (51.1637 0 0)
    (51.0617 0 0)
    (50.9586 0 0)
    (50.8545 0 0)
    (50.7493 0 0)
    (50.643 0 0)
    (50.5356 0 0)
    (50.427 0 0)
    (50.3173 0 0)
    (50.2063 0 0)
    (50.0941 0 0)
    (49.9806 0 0)
    (49.8658 0 0)
    (49.7497 0 0)
    (49.6322 0 0)
    (49.5133 0 0)
    (49.393 0 0)
    (49.2711 0 0)
    (49.1478 0 0)
    (49.0229 0 0)
    (48.8963 0 0)
    (48.7681 0 0)
    (48.6382 0 0)
    (48.5066 0 0)
    (48.3731 0 0)
    (48.2378 0 0)
    (48.1005 0 0)
    (47.9613 0 0)
    (47.82 0 0)
    (47.6765 0 0)
    (47.5309 0 0)
    (47.3831 0 0)
    (47.2329 0 0)
    (47.0802 0 0)
    (46.925 0 0)
    (46.7673 0 0)
    (46.6068 0 0)
    (46.4435 0 0)
    (46.2773 0 0)
    (46.1081 0 0)
    (45.9356 0 0)
    (45.7599 0 0)
    (45.5808 0 0)
    (45.398 0 0)
    (45.2116 0 0)
    (45.0211 0 0)
    (44.8266 0 0)
    (44.6277 0 0)
    (44.4244 0 0)
    (44.2162 0 0)
    (44.003 0 0)
    (43.7846 0 0)
    (43.5605 0 0)
    (43.3306 0 0)
    (43.0943 0 0)
    (42.8515 0 0)
    (42.6015 0 0)
    (42.3439 0 0)
    (42.0783 0 0)
    (41.8041 0 0)
    (41.5205 0 0)
    (41.2269 0 0)
    (40.9225 0 0)
    (40.6063 0 0)
    (40.2772 0 0)
    (39.9342 0 0)
    (39.5758 0 0)
    (39.2003 0 0)
    (38.806 0 0)
    (38.3906 0 0)
    (37.9513 0 0)
    (37.4851 0 0)
    (36.988 0 0)
    (36.455 0 0)
    (0 0 0)
    // max z
    (77.4293 0 0)
    (77.4165 0 0)
    (77.4037 0 0)
    (77.3909 0 0)
    (77.3781 0 0)
    (77.3652 0 0)
    (77.3524 0 0)
    (77.3395 0 0)
    (77.3266 0 0)
    (77.3138 0 0)
    (77.3009 0 0)
    (77.288 0 0)
    (77.2751 0 0)
    (77.2621 0 0)
    (77.2492 0 0)
    (77.2363 0 0)
    (77.2233 0 0)
    (77.2103 0 0)
    (77.1974 0 0)
    (77.1844 0 0)
    (77.1714 0 0)
    (77.1584 0 0)
    (77.1453 0 0)
    (77.1323 0 0)
    (77.1193 0 0)
    (77.1062 0 0)
    (77.0931 0 0)
    (77.0801 0 0)
    (77.067 0 0)
    (77.0539 0 0)
    (77.0408 0 0)
    (77.0276 0 0)
    (77.0145 0 0)
    (77.0014 0 0)
    (76.9882 0 0)
    (76.975 0 0)
    (76.9619 0 0)
    (76.9487 0 0)
    (76.9355 0 0)
    (76.9223 0 0)
    (76.909 0 0)
    (76.8958 0 0)
    (76.8826 0 0)
    (76.8693 0 0)
    (76.856 0 0)
    (76.8428 0 0)
    (76.8295 0 0)
    (76.8162 0 0)
    (76.8029 0 0)
    (76.7895 0 0)
    (76.7762 0 0)
    (76.7628 0 0)
    (76.7495 0 0)
    (76.7361 0 0)
    (76.7227 0 0)
    (76.7093 0 0)
    (76.6959 0 0)
    (76.6825 0 0)
    (76.6691 0 0)
    (76.6556 0 0)
    (76.6422 0 0)
    (76.6287 0 0)
    (76.6152 0 0)
    (76.6017 0 0)
    (76.5882 0 0)
    (76.5747 0 0)
    (76.5612 0 0)
    (76.5477 0 0)
    (76.5341 0 0)
    (76.5205 0 0)
    (76.507 0 0)
    (76.4934 0 0)
    (76.4798 0 0)
    (76.4662 0 0)
    (76.4526 0 0)
    (76.4389 0 0)
    (76.4253 0 0)
    (76.4116 0 0)
    (76.3979 0 0)
    (76.3843 0 0)
    (76.3706 0 0)
    (76.3569 0 0)
    (76.3431 0 0)
    (76.3294 0 0)
    (76.3157 0 0)
    (76.3019 0 0)
    (76.2881 0 0)
    (76.2744 0 0)
    (76.2606 0 0)
    (76.2468 0 0)
    (76.2329 0 0)
    (76.2191 0 0)
    (76.2053 0 0)
    (76.1914 0 0)
    (76.1775 0 0)
    (76.1637 0 0)
    (76.1498 0 0)
    (76.1359 0 0)
    (76.1219 0 0)
    (76.108 0 0)
    (76.0941 0 0)
    (76.0801 0 0)
    (76.0661 0 0)
    (76.0521 0 0)
    (76.0381 0 0)
    (76.0241 0 0)
    (76.0101 0 0)
    (75.9961 0 0)
    (75.982 0 0)
    (75.968 0 0)
    (75.9539 0 0)
    (75.9398 0 0)
    (75.9257 0 0)
    (75.9116 0 0)
    (75.8975 0 0)
    (75.8833 0 0)
    (75.8692 0 0)
    (75.855 0 0)
    (75.8408 0 0)
    (75.8266 0 0)
    (75.8124 0 0)
    (75.7982 0 0)
    (75.784 0 0)
    (75.7697 0 0)
    (75.7555 0 0)
    (75.7412 0 0)
    (75.7269 0 0)
    (75.7126 0 0)
    (75.6983 0 0)
    (75.684 0 0)
    (75.6696 0 0)
    (75.6553 0 0)
    (75.6409 0 0)
    (75.6265 0 0)
    (75.6121 0 0)
    (75.5977 0 0)
    (75.5833 0 0)
    (75.5688 0 0)
    (75.5544 0 0)
    (75.5399 0 0)
    (75.5255 0 0)
    (75.511 0 0)
    (75.4965 0 0)
    (75.4819 0 0)
    (75.4674 0 0)
    (75.4529 0 0)
    (75.4383 0 0)
    (75.4237 0 0)
    (75.4091 0 0)
    (75.3945 0 0)
    (75.3799 0 0)
    (75.3653 0 0)
    (75.3506 0 0)
    (75.336 0 0)
    (75.3213 0 0)
    (75.3066 0 0)
    (75.2919 0 0)
    (75.2772 0 0)
    (75.2624 0 0)
    (75.2477 0 0)
    (75.2329 0 0)
    (75.2182 0 0)
    (75.2034 0 0)
    (75.1886 0 0)
    (75.1737 0 0)
    (75.1589 0 0)
    (75.1441 0 0)
    (75.1292 0 0)
    (75.1143 0 0)
    (75.0994 0 0)
    (75.0845 0 0)
    (75.0696 0 0)
    (75.0546 0 0)
    (75.0397 0 0)
    (75.0247 0 0)
    (75.0097 0 0)
    (74.9947 0 0)
    (74.9797 0 0)
    (74.9647 0 0)
    (74.9497 0 0)
    (74.9346 0 0)
    (74.9195 0 0)
    (74.9044 0 0)
    (74.8893 0 0)
    (74.8742 0 0)
    (74.8591 0 0)
    (74.8439 0 0)
    (74.8288 0 0)
    (74.8136 0 0)
    (74.7984 0 0)
    (74.7832 0 0)
    (74.768 0 0)
    (74.7527 0 0)
    (74.7375 0 0)
    (74.7222 0 0)
    (74.7069 0 0)
    (74.6916 0 0)
    (74.6763 0 0)
    (74.6609 0 0)
    (74.6456 0 0)
    (74.6302 0 0)
    (74.6148 0 0)
    (74.5994 0 0)
    (74.584 0 0)
    (74.5686 0 0)
    (74.5531 0 0)
    (74.5377 0 0)
    (74.5222 0 0)
    (74.5067 0 0)
    (74.4912 0 0)
    (74.4757 0 0)
    (74.4601 0 0)
    (74.4446 0 0)
    (74.429 0 0)
    (74.4134 0 0)
    (74.3978 0 0)
    (74.3822 0 0)
    (74.3665 0 0)
    (74.3509 0 0)
    (74.3352 0 0)
    (74.3195 0 0)
    (74.3038 0 0)
    (74.2881 0 0)
    (74.2723 0 0)
    (74.2566 0 0)
    (74.2408 0 0)
    (74.225 0 0)
    (74.2092 0 0)
    (74.1934 0 0)
    (74.1775 0 0)
    (74.1617 0 0)
    (74.1458 0 0)
    (74.1299 0 0)
    (74.114 0 0)
    (74.0981 0 0)
    (74.0821 0 0)
    (74.0662 0 0)
    (74.0502 0 0)
    (74.0342 0 0)
    (74.0182 0 0)
    (74.0021 0 0)
    (73.9861 0 0)
    (73.97 0 0)
    (73.954 0 0)
    (73.9379 0 0)
    (73.9217 0 0)
    (73.9056 0 0)
    (73.8894 0 0)
    (73.8733 0 0)
    (73.8571 0 0)
    (73.8409 0 0)
    (73.8247 0 0)
    (73.8084 0 0)
    (73.7922 0 0)
    (73.7759 0 0)
    (73.7596 0 0)
    (73.7433 0 0)
    (73.7269 0 0)
    (73.7106 0 0)
    (73.6942 0 0)
    (73.6778 0 0)
    (73.6614 0 0)
    (73.645 0 0)
    (73.6286 0 0)
    (73.6121 0 0)
    (73.5956 0 0)
    (73.5791 0 0)
    (73.5626 0 0)
    (73.5461 0 0)
    (73.5295 0 0)
    (73.513 0 0)
    (73.4964 0 0)
    (73.4798 0 0)
    (73.4631 0 0)
    (73.4465 0 0)
    (73.4298 0 0)
    (73.4132 0 0)
    (73.3965 0 0)
    (73.3797 0 0)
    (73.363 0 0)
    (73.3462 0 0)
    (73.3295 0 0)
    (73.3127 0 0)
    (73.2958 0 0)
    (73.279 0 0)
    (73.2621 0 0)
    (73.2453 0 0)
    (73.2284 0 0)
    (73.2115 0 0)
    (73.1945 0 0)
    (73.1776 0 0)
    (73.1606 0 0)
    (73.1436 0 0)
    (73.1266 0 0)
    (73.1096 0 0)
    (73.0925 0 0)
    (73.0754 0 0)
    (73.0583 0 0)
    (73.0412 0 0)
    (73.0241 0 0)
    (73.007 0 0)
    (72.9898 0 0)
    (72.9726 0 0)
    (72.9554 0 0)
    (72.9381 0 0)
    (72.9209 0 0)
    (72.9036 0 0)
    (72.8863 0 0)
    (72.869 0 0)
    (72.8517 0 0)
    (72.8343 0 0)
    (72.8169 0 0)
    (72.7995 0 0)
    (72.7821 0 0)
    (72.7647 0 0)
    (72.7472 0 0)
    (72.7297 0 0)
    (72.7122 0 0)
    (72.6947 0 0)
    (72.6772 0 0)
    (72.6596 0 0)
    (72.642 0 0)
    (72.6244 0 0)
    (72.6068 0 0)
    (72.5891 0 0)
    (72.5715 0 0)
    (72.5538 0 0)
    (72.536 0 0)
    (72.5183 0 0)
    (72.5005 0 0)
    (72.4828 0 0)
    (72.465 0 0)
    (72.4471 0 0)
    (72.4293 0 0)
    (72.4114 0 0)
    (72.3935 0 0)
    (72.3756 0 0)
    (72.3577 0 0)
    (72.3397 0 0)
    (72.3217 0 0)
    (72.3037 0 0)
    (72.2857 0 0)
    (72.2677 0 0)
    (72.2496 0 0)
    (72.2315 0 0)
    (72.2134 0 0)
    (72.1953 0 0)
    (72.1771 0 0)
    (72.1589 0 0)
    (72.1407 0 0)
    (72.1225 0 0)
    (72.1042 0 0)
    (72.086 0 0)
    (72.0677 0 0)
    (72.0493 0 0)
    (72.031 0 0)
    (72.0126 0 0)
    (71.9942 0 0)
    (71.9758 0 0)
    (71.9574 0 0)
    (71.9389 0 0)
    (71.9204 0 0)
    (71.9019 0 0)
    (71.8834 0 0)
    (71.8648 0 0)
    (71.8462 0 0)
    (71.8276 0 0)
    (71.809 0 0)
    (71.7904 0 0)
    (71.7717 0 0)
    (71.753 0 0)
    (71.7342 0 0)
    (71.7155 0 0)
    (71.6967 0 0)
    (71.6779 0 0)
    (71.6591 0 0)
    (71.6402 0 0)
    (71.6214 0 0)
    (71.6025 0 0)
    (71.5835 0 0)
    (71.5646 0 0)
    (71.5456 0 0)
    (71.5266 0 0)
    (71.5076 0 0)
    (71.4885 0 0)
    (71.4695 0 0)
    (71.4504 0 0)
    (71.4312 0 0)
    (71.4121 0 0)
    (71.3929 0 0)
    (71.3737 0 0)
    (71.3545 0 0)
    (71.3352 0 0)
    (71.3159 0 0)
    (71.2966 0 0)
    (71.2773 0 0)
    (71.2579 0 0)
    (71.2385 0 0)
    (71.2191 0 0)
    (71.1997 0 0)
    (71.1802 0 0)
    (71.1607 0 0)
    (71.1412 0 0)
    (71.1216 0 0)
    (71.1021 0 0)
    (71.0825 0 0)
    (71.0628 0 0)
    (71.0432 0 0)
    (71.0235 0 0)
    (71.0038 0 0)
    (70.9841 0 0)
    (70.9643 0 0)
    (70.9445 0 0)
    (70.9247 0 0)
    (70.9048 0 0)
    (70.885 0 0)
    (70.865 0 0)
    (70.8451 0 0)
    (70.8252 0 0)
    (70.8052 0 0)
    (70.7852 0 0)
    (70.7651 0 0)
    (70.745 0 0)
    (70.7249 0 0)
    (70.7048 0 0)
    (70.6846 0 0)
    (70.6645 0 0)
    (70.6442 0 0)
    (70.624 0 0)
    (70.6037 0 0)
    (70.5834 0 0)
    (70.5631 0 0)
    (70.5427 0 0)
    (70.5223 0 0)
    (70.5019 0 0)
    (70.4815 0 0)
    (70.461 0 0)
    (70.4405 0 0)
    (70.4199 0 0)
    (70.3994 0 0)
    (70.3788 0 0)
    (70.3581 0 0)
    (70.3375 0 0)
    (70.3168 0 0)
    (70.2961 0 0)
    (70.2753 0 0)
    (70.2545 0 0)
    (70.2337 0 0)
    (70.2129 0 0)
    (70.192 0 0)
    (70.1711 0 0)
    (70.1501 0 0)
    (70.1292 0 0)
    (70.1082 0 0)
    (70.0871 0 0)
    (70.0661 0 0)
    (70.045 0 0)
    (70.0239 0 0)
    (70.0027 0 0)
    (69.9815 0 0)
    (69.9603 0 0)
    (69.939 0 0)
    (69.9177 0 0)
    (69.8964 0 0)
    (69.8751 0 0)
    (69.8537 0 0)
    (69.8323 0 0)
    (69.8108 0 0)
    (69.7893 0 0)
    (69.7678 0 0)
    (69.7463 0 0)
    (69.7247 0 0)
    (69.7031 0 0)
    (69.6814 0 0)
    (69.6597 0 0)
    (69.638 0 0)
    (69.6163 0 0)
    (69.5945 0 0)
    (69.5727 0 0)
    (69.5508 0 0)
    (69.5289 0 0)
    (69.507 0 0)
    (69.485 0 0)
    (69.463 0 0)
    (69.441 0 0)
    (69.4189 0 0)
    (69.3969 0 0)
    (69.3747 0 0)
    (69.3525 0 0)
    (69.3303 0 0)
    (69.3081 0 0)
    (69.2858 0 0)
    (69.2635 0 0)
    (69.2412 0 0)
    (69.2188 0 0)
    (69.1964 0 0)
    (69.1739 0 0)
    (69.1514 0 0)
    (69.1289 0 0)
    (69.1063 0 0)
    (69.0837 0 0)
    (69.0611 0 0)
    (69.0384 0 0)
    (69.0157 0 0)
    (68.9929 0 0)
    (68.9702 0 0)
    (68.9473 0 0)
    (68.9245 0 0)
    (68.9016 0 0)
    (68.8786 0 0)
    (68.8556 0 0)
    (68.8326 0 0)
    (68.8096 0 0)
    (68.7865 0 0)
    (68.7633 0 0)
    (68.7402 0 0)
    (68.717 0 0)
    (68.6937 0 0)
    (68.6704 0 0)
    (68.6471 0 0)
    (68.6237 0 0)
    (68.6003 0 0)
    (68.5769 0 0)
    (68.5534 0 0)
    (68.5298 0 0)
    (68.5063 0 0)
    (68.4826 0 0)
    (68.459 0 0)
    (68.4353 0 0)
    (68.4116 0 0)
    (68.3878 0 0)
    (68.364 0 0)
    (68.3401 0 0)
    (68.3162 0 0)
    (68.2923 0 0)
    (68.2683 0 0)
    (68.2443 0 0)
    (68.2202 0 0)
    (68.1961 0 0)
    (68.1719 0 0)
    (68.1477 0 0)
    (68.1235 0 0)
    (68.0992 0 0)
    (68.0749 0 0)
    (68.0505 0 0)
    (68.0261 0 0)
    (68.0017 0 0)
    (67.9772 0 0)
    (67.9526 0 0)
    (67.928 0 0)
    (67.9034 0 0)
    (67.8787 0 0)
    (67.854 0 0)
    (67.8292 0 0)
    (67.8044 0 0)
    (67.7795 0 0)
    (67.7546 0 0)
    (67.7297 0 0)
    (67.7047 0 0)
    (67.6796 0 0)
    (67.6545 0 0)
    (67.6294 0 0)
    (67.6042 0 0)
    (67.579 0 0)
    (67.5537 0 0)
    (67.5284 0 0)
    (67.503 0 0)
    (67.4776 0 0)
    (67.4521 0 0)
    (67.4266 0 0)
    (67.401 0 0)
    (67.3754 0 0)
    (67.3498 0 0)
    (67.3241 0 0)
    (67.2983 0 0)
    (67.2725 0 0)
    (67.2466 0 0)
    (67.2207 0 0)
    (67.1948 0 0)
    (67.1687 0 0)
    (67.1427 0 0)
    (67.1166 0 0)
    (67.0904 0 0)
    (67.0642 0 0)
    (67.0379 0 0)
    (67.0116 0 0)
    (66.9853 0 0)
    (66.9588 0 0)
    (66.9324 0 0)
    (66.9058 0 0)
    (66.8793 0 0)
    (66.8526 0 0)
    (66.8259 0 0)
    (66.7992 0 0)
    (66.7724 0 0)
    (66.7456 0 0)
    (66.7187 0 0)
    (66.6917 0 0)
    (66.6647 0 0)
    (66.6377 0 0)
    (66.6105 0 0)
    (66.5834 0 0)
    (66.5561 0 0)
    (66.5289 0 0)
    (66.5015 0 0)
    (66.4741 0 0)
    (66.4467 0 0)
    (66.4192 0 0)
    (66.3916 0 0)
    (66.364 0 0)
    (66.3363 0 0)
    (66.3086 0 0)
    (66.2808 0 0)
    (66.2529 0 0)
    (66.225 0 0)
    (66.197 0 0)
    (66.169 0 0)
    (66.1409 0 0)
    (66.1127 0 0)
    (66.0845 0 0)
    (66.0563 0 0)
    (66.0279 0 0)
    (65.9995 0 0)
    (65.9711 0 0)
    (65.9426 0 0)
    (65.914 0 0)
    (65.8853 0 0)
    (65.8566 0 0)
    (65.8279 0 0)
    (65.799 0 0)
    (65.7701 0 0)
    (65.7412 0 0)
    (65.7122 0 0)
    (65.6831 0 0)
    (65.6539 0 0)
    (65.6247 0 0)
    (65.5955 0 0)
    (65.5661 0 0)
    (65.5367 0 0)
    (65.5072 0 0)
    (65.4777 0 0)
    (65.4481 0 0)
    (65.4184 0 0)
    (65.3887 0 0)
    (65.3588 0 0)
    (65.329 0 0)
    (65.299 0 0)
    (65.269 0 0)
    (65.2389 0 0)
    (65.2088 0 0)
    (65.1785 0 0)
    (65.1482 0 0)
    (65.1179 0 0)
    (65.0874 0 0)
    (65.0569 0 0)
    (65.0263 0 0)
    (64.9957 0 0)
    (64.965 0 0)