FoamFile
{
    version     2.0;
    format      ascii;
    class       volScalarField;
    location    "0";
    object      epsilon;
}
// * * * * * * * * * * * * * * * * * * * * * * * * * * * * * * * * * * * * * //

dimensions      [0 2 -3 0 0 0 0];

internalField   uniform 5433.64518532;

boundaryField
{
    inlet
    {
        type            fixedValue;
        value           uniform 5433.64518532;
    }
    fuel
    {
        type            fixedValue;
        value           uniform 1467084.20004;
    }
    outlet
    {
        type            zeroGradient;
    }
    walls
    {
        type            zeroGradient;
    }
}

// *********************** vim: set ft=cpp et sw=4 : *********************** //
