FoamFile
{
    version     2.0;
    format      ascii;
    class       volScalarField;
    object      p;
}
// * * * * * * * * * * * * * * * * * * * * * * * * * * * * * * * * * * * * * //

dimensions      [1 -1 -2 0 0 0 0];

internalField   uniform 1.01325e5;

boundaryField
{
    inlet           
    {
        type            zeroGradient;
    }
    fuel           
    {
        type            zeroGradient;
    }

    outlet          
    {
        type            fixedValue;
        value           uniform 1.01325e5;
    }

    walls
    {
        type            zeroGradient;
    }
}

// *********************** vim: set ft=cpp et sw=4 : *********************** //
