FoamFile
{
    version     2.0;
    format      ascii;
    class       volScalarField;
    location    "0";
    object      rho;
}
// * * * * * * * * * * * * * * * * * * * * * * * * * * * * * * * * * * * * * //

dimensions      [1 -3 0 0 0 0 0];

internalField   uniform 0.36024753031571;

boundaryField
{
    inlet
    {
        type            fixedValue;
        value           uniform 0.36024753031571;
    }
    fuel
    {
        type            fixedValue;
        value           uniform 1.700653196386502364e-01;
    }
    outlet
    {
        type            zeroGradient;
    }
    walls
    {
        type            zeroGradient;
    }
}

// *********************** vim: set ft=cpp et sw=4 : *********************** //
