FoamFile
{
    version     2.0;
    format      ascii;
    class       volScalarField;
    location    "0";
    object      T;
}
// * * * * * * * * * * * * * * * * * * * * * * * * * * * * * * * * * * * * * //

dimensions      [ 0 0 0 1 0 0 0 ];

internalField   uniform 980;

boundaryField
{
    inlet
    {
        type            fixedValue;
        value           $internalField;
    }
    fuel
    {
        type            fixedValue;
        value           uniform 750;
    }
    outlet
    {
        type            zeroGradient;
    }
    walls
    {
        type            zeroGradient;
    }
}

// *********************** vim: set ft=cpp et sw=4 : *********************** //
