FoamFile
{
    version     2.0;
    format      ascii;
    class       volVectorField;
    object      U;
}
// * * * * * * * * * * * * * * * * * * * * * * * * * * * * * * * * * * * * * //

dimensions      [0 1 -1 0 0 0 0];

internalField   uniform (60 0 0);

boundaryField
{
    inlet           
    {
        type            fixedValue;
        value           uniform (60 0 0);
    }
    fuel           
    {
        type            fixedValue;
        value           uniform (180 0 0);
    }

    outlet          
    {
        type            zeroGradient;
    }

    walls       
    {
        type            slip;
    }

}

// *********************** vim: set ft=cpp et sw=4 : *********************** //
