FoamFile
{
    version     2.0;
    format      ascii;
    class       vectorAverageField;
    object      U;
    note        "From experimental data, scaled for Ubulk = 50 m/s";
}

// * * * * * * * * * * * * * * * * * * * * * * * * * * * * * * * * * * * * * //

// Average
(0 0 0)

(
    // min z
    (6.1451825e+01 0 0)
    (6.1441667e+01 0 0)
    (6.1431508e+01 0 0)
    (6.1421349e+01 0 0)
    (6.1411190e+01 0 0)
    (6.1400952e+01 0 0)
    (6.1390794e+01 0 0)
    (6.1380556e+01 0 0)
    (6.1370317e+01 0 0)
    (6.1360159e+01 0 0)
    (6.1349921e+01 0 0)
    (6.1339683e+01 0 0)
    (6.1329444e+01 0 0)
    (6.1319127e+01 0 0)
    (6.1308889e+01 0 0)
    (6.1298651e+01 0 0)
    (6.1288333e+01 0 0)
    (6.1278016e+01 0 0)
    (6.1267778e+01 0 0)
    (6.1257460e+01 0 0)
    (6.1247143e+01 0 0)
    (6.1236825e+01 0 0)
    (6.1226429e+01 0 0)
    (6.1216111e+01 0 0)
    (6.1205794e+01 0 0)
    (6.1195397e+01 0 0)
    (6.1185000e+01 0 0)
    (6.1174683e+01 0 0)
    (6.1164286e+01 0 0)
    (6.1153889e+01 0 0)
    (6.1143492e+01 0 0)
    (6.1133016e+01 0 0)
    (6.1122619e+01 0 0)
    (6.1112222e+01 0 0)
    (6.1101746e+01 0 0)
    (6.1091270e+01 0 0)
    (6.1080873e+01 0 0)
    (6.1070397e+01 0 0)
    (6.1059921e+01 0 0)
    (6.1049444e+01 0 0)
    (6.1038889e+01 0 0)
    (6.1028413e+01 0 0)
    (6.1017937e+01 0 0)
    (6.1007381e+01 0 0)
    (6.0996825e+01 0 0)
    (6.0986349e+01 0 0)
    (6.0975794e+01 0 0)
    (6.0965238e+01 0 0)
    (6.0954683e+01 0 0)
    (6.0944048e+01 0 0)
    (6.0933492e+01 0 0)
    (6.0922857e+01 0 0)
    (6.0912302e+01 0 0)
    (6.0901667e+01 0 0)
    (6.0891032e+01 0 0)
    (6.0880397e+01 0 0)
    (6.0869762e+01 0 0)
    (6.0859127e+01 0 0)
    (6.0848492e+01 0 0)
    (6.0837778e+01 0 0)
    (6.0827143e+01 0 0)
    (6.0816429e+01 0 0)
    (6.0805714e+01 0 0)
    (6.0795000e+01 0 0)
    (6.0784286e+01 0 0)
    (6.0773571e+01 0 0)
    (6.0762857e+01 0 0)
    (6.0752143e+01 0 0)
    (6.0741349e+01 0 0)
    (6.0730556e+01 0 0)
    (6.0719841e+01 0 0)
    (6.0709048e+01 0 0)
    (6.0698254e+01 0 0)
    (6.0687460e+01 0 0)
    (6.0676667e+01 0 0)
    (6.0665794e+01 0 0)
    (6.0655000e+01 0 0)
    (6.0644127e+01 0 0)
    (6.0633254e+01 0 0)
    (6.0622460e+01 0 0)
    (6.0611587e+01 0 0)
    (6.0600714e+01 0 0)
    (6.0589762e+01 0 0)
    (6.0578889e+01 0 0)
    (6.0568016e+01 0 0)
    (6.0557063e+01 0 0)
    (6.0546111e+01 0 0)
    (6.0535238e+01 0 0)
    (6.0524286e+01 0 0)
    (6.0513333e+01 0 0)
    (6.0502302e+01 0 0)
    (6.0491349e+01 0 0)
    (6.0480397e+01 0 0)
    (6.0469365e+01 0 0)
    (6.0458333e+01 0 0)
    (6.0447381e+01 0 0)
    (6.0436349e+01 0 0)
    (6.0425317e+01 0 0)
    (6.0414206e+01 0 0)
    (6.0403175e+01 0 0)
    (6.0392143e+01 0 0)
    (6.0381032e+01 0 0)
    (6.0369921e+01 0 0)
    (6.0358810e+01 0 0)
    (6.0347698e+01 0 0)
    (6.0336587e+01 0 0)
    (6.0325476e+01 0 0)
    (6.0314365e+01 0 0)
    (6.0303175e+01 0 0)
    (6.0292063e+01 0 0)
    (6.0280873e+01 0 0)
    (6.0269683e+01 0 0)
    (6.0258492e+01 0 0)
    (6.0247302e+01 0 0)
    (6.0236111e+01 0 0)
    (6.0224841e+01 0 0)
    (6.0213651e+01 0 0)
    (6.0202381e+01 0 0)
    (6.0191111e+01 0 0)
    (6.0179841e+01 0 0)
    (6.0168571e+01 0 0)
    (6.0157302e+01 0 0)
    (6.0146032e+01 0 0)
    (6.0134683e+01 0 0)
    (6.0123413e+01 0 0)
    (6.0112063e+01 0 0)
    (6.0100714e+01 0 0)
    (6.0089365e+01 0 0)
    (6.0078016e+01 0 0)
    (6.0066667e+01 0 0)
    (6.0055238e+01 0 0)
    (6.0043889e+01 0 0)
    (6.0032460e+01 0 0)
    (6.0021032e+01 0 0)
    (6.0009603e+01 0 0)
    (5.9998175e+01 0 0)
    (5.9986746e+01 0 0)
    (5.9975238e+01 0 0)
    (5.9963810e+01 0 0)
    (5.9952302e+01 0 0)
    (5.9940873e+01 0 0)
    (5.9929365e+01 0 0)
    (5.9917857e+01 0 0)
    (5.9906270e+01 0 0)
    (5.9894762e+01 0 0)
    (5.9883254e+01 0 0)
    (5.9871667e+01 0 0)
    (5.9860079e+01 0 0)
    (5.9848492e+01 0 0)
    (5.9836905e+01 0 0)
    (5.9825317e+01 0 0)
    (5.9813730e+01 0 0)
    (5.9802063e+01 0 0)
    (5.9790476e+01 0 0)
    (5.9778810e+01 0 0)
    (5.9767143e+01 0 0)
    (5.9755476e+01 0 0)
    (5.9743810e+01 0 0)
    (5.9732063e+01 0 0)
    (5.9720397e+01 0 0)
    (5.9708651e+01 0 0)
    (5.9696984e+01 0 0)
    (5.9685238e+01 0 0)
    (5.9673492e+01 0 0)
    (5.9661667e+01 0 0)
    (5.9649921e+01 0 0)
    (5.9638175e+01 0 0)
    (5.9626349e+01 0 0)
    (5.9614524e+01 0 0)
    (5.9602698e+01 0 0)
    (5.9590873e+01 0 0)
    (5.9579048e+01 0 0)
    (5.9567143e+01 0 0)
    (5.9555317e+01 0 0)
    (5.9543413e+01 0 0)
    (5.9531508e+01 0 0)
    (5.9519603e+01 0 0)
    (5.9507698e+01 0 0)
    (5.9495794e+01 0 0)
    (5.9483889e+01 0 0)
    (5.9471905e+01 0 0)
    (5.9459921e+01 0 0)
    (5.9447937e+01 0 0)
    (5.9435952e+01 0 0)
    (5.9423968e+01 0 0)
    (5.9411984e+01 0 0)
    (5.9399921e+01 0 0)
    (5.9387937e+01 0 0)
    (5.9375873e+01 0 0)
    (5.9363810e+01 0 0)
    (5.9351746e+01 0 0)
    (5.9339683e+01 0 0)
    (5.9327540e+01 0 0)
    (5.9315476e+01 0 0)
    (5.9303333e+01 0 0)
    (5.9291190e+01 0 0)
    (5.9279048e+01 0 0)
    (5.9266905e+01 0 0)
    (5.9254683e+01 0 0)
    (5.9242540e+01 0 0)
    (5.9230317e+01 0 0)
    (5.9218095e+01 0 0)
    (5.9205873e+01 0 0)
    (5.9193651e+01 0 0)
    (5.9181429e+01 0 0)
    (5.9169127e+01 0 0)
    (5.9156905e+01 0 0)
    (5.9144603e+01 0 0)
    (5.9132302e+01 0 0)
    (5.9120000e+01 0 0)
    (5.9107698e+01 0 0)
    (5.9095317e+01 0 0)
    (5.9083016e+01 0 0)
    (5.9070635e+01 0 0)
    (5.9058254e+01 0 0)
    (5.9045873e+01 0 0)
    (5.9033492e+01 0 0)
    (5.9021032e+01 0 0)
    (5.9008651e+01 0 0)
    (5.8996190e+01 0 0)
    (5.8983730e+01 0 0)
    (5.8971270e+01 0 0)
    (5.8958810e+01 0 0)
    (5.8946270e+01 0 0)
    (5.8933810e+01 0 0)
    (5.8921270e+01 0 0)
    (5.8908730e+01 0 0)
    (5.8896190e+01 0 0)
    (5.8883651e+01 0 0)
    (5.8871032e+01 0 0)
    (5.8858492e+01 0 0)
    (5.8845873e+01 0 0)
    (5.8833254e+01 0 0)
    (5.8820635e+01 0 0)
    (5.8808016e+01 0 0)
    (5.8795317e+01 0 0)
    (5.8782698e+01 0 0)
    (5.8770000e+01 0 0)
    (5.8757302e+01 0 0)
    (5.8744603e+01 0 0)
    (5.8731825e+01 0 0)
    (5.8719127e+01 0 0)
    (5.8706349e+01 0 0)
    (5.8693651e+01 0 0)
    (5.8680873e+01 0 0)
    (5.8668016e+01 0 0)
    (5.8655238e+01 0 0)
    (5.8642381e+01 0 0)
    (5.8629603e+01 0 0)
    (5.8616746e+01 0 0)
    (5.8603889e+01 0 0)
    (5.8591032e+01 0 0)
    (5.8578095e+01 0 0)
    (5.8565238e+01 0 0)
    (5.8552302e+01 0 0)
    (5.8539365e+01 0 0)
    (5.8526429e+01 0 0)
    (5.8513413e+01 0 0)
    (5.8500476e+01 0 0)
    (5.8487460e+01 0 0)
    (5.8474444e+01 0 0)
    (5.8461429e+01 0 0)
    (5.8448413e+01 0 0)
    (5.8435397e+01 0 0)
    (5.8422302e+01 0 0)
    (5.8409206e+01 0 0)
    (5.8396111e+01 0 0)
    (5.8383016e+01 0 0)
    (5.8369921e+01 0 0)
    (5.8356746e+01 0 0)
    (5.8343651e+01 0 0)
    (5.8330476e+01 0 0)
    (5.8317302e+01 0 0)
    (5.8304048e+01 0 0)
    (5.8290873e+01 0 0)
    (5.8277619e+01 0 0)
    (5.8264444e+01 0 0)
    (5.8251190e+01 0 0)
    (5.8237857e+01 0 0)
    (5.8224603e+01 0 0)
    (5.8211270e+01 0 0)
    (5.8198016e+01 0 0)
    (5.8184683e+01 0 0)
    (5.8171270e+01 0 0)
    (5.8157937e+01 0 0)
    (5.8144524e+01 0 0)
    (5.8131190e+01 0 0)
    (5.8117778e+01 0 0)
    (5.8104365e+01 0 0)
    (5.8090873e+01 0 0)
    (5.8077460e+01 0 0)
    (5.8063968e+01 0 0)
    (5.8050476e+01 0 0)
    (5.8036984e+01 0 0)
    (5.8023492e+01 0 0)
    (5.8009921e+01 0 0)
    (5.7996349e+01 0 0)
    (5.7982778e+01 0 0)
    (5.7969206e+01 0 0)
    (5.7955635e+01 0 0)
    (5.7942063e+01 0 0)
    (5.7928413e+01 0 0)
    (5.7914762e+01 0 0)
    (5.7901111e+01 0 0)
    (5.7887381e+01 0 0)
    (5.7873730e+01 0 0)
    (5.7860000e+01 0 0)
    (5.7846270e+01 0 0)
    (5.7832540e+01 0 0)
    (5.7818810e+01 0 0)
    (5.7805000e+01 0 0)
    (5.7791190e+01 0 0)
    (5.7777381e+01 0 0)
    (5.7763571e+01 0 0)
    (5.7749762e+01 0 0)
    (5.7735873e+01 0 0)
    (5.7721984e+01 0 0)
    (5.7708095e+01 0 0)
    (5.7694206e+01 0 0)
    (5.7680317e+01 0 0)
    (5.7666349e+01 0 0)
    (5.7652381e+01 0 0)
    (5.7638413e+01 0 0)
    (5.7624444e+01 0 0)
    (5.7610397e+01 0 0)
    (5.7596429e+01 0 0)
    (5.7582381e+01 0 0)
    (5.7568254e+01 0 0)
    (5.7554206e+01 0 0)
    (5.7540079e+01 0 0)
    (5.7526032e+01 0 0)
    (5.7511905e+01 0 0)
    (5.7497698e+01 0 0)
    (5.7483571e+01 0 0)
    (5.7469365e+01 0 0)
    (5.7455159e+01 0 0)
    (5.7440952e+01 0 0)
    (5.7426746e+01 0 0)
    (5.7412460e+01 0 0)
    (5.7398175e+01 0 0)
    (5.7383889e+01 0 0)
    (5.7369603e+01 0 0)
    (5.7355317e+01 0 0)
    (5.7340952e+01 0 0)
    (5.7326587e+01 0 0)
    (5.7312222e+01 0 0)
    (5.7297857e+01 0 0)
    (5.7283413e+01 0 0)
    (5.7268968e+01 0 0)
    (5.7254524e+01 0 0)
    (5.7240079e+01 0 0)
    (5.7225556e+01 0 0)
    (5.7211111e+01 0 0)
    (5.7196587e+01 0 0)
    (5.7181984e+01 0 0)
    (5.7167460e+01 0 0)
    (5.7152857e+01 0 0)
    (5.7138254e+01 0 0)
    (5.7123651e+01 0 0)
    (5.7109048e+01 0 0)
    (5.7094365e+01 0 0)
    (5.7079683e+01 0 0)
    (5.7065000e+01 0 0)
    (5.7050317e+01 0 0)
    (5.7035556e+01 0 0)
    (5.7020794e+01 0 0)
    (5.7006032e+01 0 0)
    (5.6991270e+01 0 0)
    (5.6976508e+01 0 0)
    (5.6961667e+01 0 0)
    (5.6946825e+01 0 0)
    (5.6931905e+01 0 0)
    (5.6917063e+01 0 0)
    (5.6902143e+01 0 0)
    (5.6887222e+01 0 0)
    (5.6872302e+01 0 0)
    (5.6857302e+01 0 0)
    (5.6842381e+01 0 0)
    (5.6827381e+01 0 0)
    (5.6812302e+01 0 0)
    (5.6797302e+01 0 0)
    (5.6782222e+01 0 0)
    (5.6767143e+01 0 0)
    (5.6752063e+01 0 0)
    (5.6736905e+01 0 0)
    (5.6721825e+01 0 0)
    (5.6706667e+01 0 0)
    (5.6691429e+01 0 0)
    (5.6676270e+01 0 0)
    (5.6661032e+01 0 0)
    (5.6645794e+01 0 0)
    (5.6630556e+01 0 0)
    (5.6615238e+01 0 0)
    (5.6599921e+01 0 0)
    (5.6584603e+01 0 0)
    (5.6569286e+01 0 0)
    (5.6553889e+01 0 0)
    (5.6538492e+01 0 0)
    (5.6523095e+01 0 0)
    (5.6507698e+01 0 0)
    (5.6492222e+01 0 0)
    (5.6476746e+01 0 0)
    (5.6461270e+01 0 0)
    (5.6445714e+01 0 0)
    (5.6430238e+01 0 0)
    (5.6414683e+01 0 0)
    (5.6399048e+01 0 0)
    (5.6383492e+01 0 0)
    (5.6367857e+01 0 0)
    (5.6352222e+01 0 0)
    (5.6336587e+01 0 0)
    (5.6320873e+01 0 0)
    (5.6305159e+01 0 0)
    (5.6289444e+01 0 0)
    (5.6273651e+01 0 0)
    (5.6257937e+01 0 0)
    (5.6242063e+01 0 0)
    (5.6226270e+01 0 0)
    (5.6210476e+01 0 0)
    (5.6194603e+01 0 0)
    (5.6178730e+01 0 0)
    (5.6162778e+01 0 0)
    (5.6146825e+01 0 0)
    (5.6130873e+01 0 0)
    (5.6114921e+01 0 0)
    (5.6098889e+01 0 0)
    (5.6082937e+01 0 0)
    (5.6066825e+01 0 0)
    (5.6050794e+01 0 0)
    (5.6034683e+01 0 0)
    (5.6018571e+01 0 0)
    (5.6002460e+01 0 0)
    (5.5986270e+01 0 0)
    (5.5970079e+01 0 0)
    (5.5953889e+01 0 0)
    (5.5937698e+01 0 0)
    (5.5921429e+01 0 0)
    (5.5905159e+01 0 0)
    (5.5888810e+01 0 0)
    (5.5872540e+01 0 0)
    (5.5856190e+01 0 0)
    (5.5839762e+01 0 0)
    (5.5823413e+01 0 0)
    (5.5806984e+01 0 0)
    (5.5790556e+01 0 0)
    (5.5774048e+01 0 0)
    (5.5757540e+01 0 0)
    (5.5741032e+01 0 0)
    (5.5724524e+01 0 0)
    (5.5707937e+01 0 0)
    (5.5691349e+01 0 0)
    (5.5674683e+01 0 0)
    (5.5658095e+01 0 0)
    (5.5641429e+01 0 0)
    (5.5624683e+01 0 0)
    (5.5608016e+01 0 0)
    (5.5591270e+01 0 0)
    (5.5574524e+01 0 0)
    (5.5557698e+01 0 0)
    (5.5540873e+01 0 0)
    (5.5524048e+01 0 0)
    (5.5507143e+01 0 0)
    (5.5490238e+01 0 0)
    (5.5473333e+01 0 0)
    (5.5456429e+01 0 0)
    (5.5439444e+01 0 0)
    (5.5422460e+01 0 0)
    (5.5405397e+01 0 0)
    (5.5388333e+01 0 0)
    (5.5371270e+01 0 0)
    (5.5354206e+01 0 0)
    (5.5337063e+01 0 0)
    (5.5319921e+01 0 0)
    (5.5302698e+01 0 0)
    (5.5285476e+01 0 0)
    (5.5268254e+01 0 0)
    (5.5251032e+01 0 0)
    (5.5233730e+01 0 0)
    (5.5216429e+01 0 0)
    (5.5199048e+01 0 0)
    (5.5181667e+01 0 0)
    (5.5164286e+01 0 0)
    (5.5146825e+01 0 0)
    (5.5129365e+01 0 0)
    (5.5111905e+01 0 0)
    (5.5094365e+01 0 0)
    (5.5076905e+01 0 0)
    (5.5059286e+01 0 0)
    (5.5041667e+01 0 0)
    (5.5024048e+01 0 0)
    (5.5006429e+01 0 0)
    (5.4988730e+01 0 0)
    (5.4971032e+01 0 0)
    (5.4953333e+01 0 0)
    (5.4935556e+01 0 0)
    (5.4917778e+01 0 0)
    (5.4899921e+01 0 0)
    (5.4882063e+01 0 0)
    (5.4864206e+01 0 0)
    (5.4846270e+01 0 0)
    (5.4828333e+01 0 0)
    (5.4810397e+01 0 0)
    (5.4792381e+01 0 0)
    (5.4774365e+01 0 0)
    (5.4756270e+01 0 0)
    (5.4738254e+01 0 0)
    (5.4720079e+01 0 0)
    (5.4701984e+01 0 0)
    (5.4683810e+01 0 0)
    (5.4665556e+01 0 0)
    (5.4647302e+01 0 0)
    (5.4629048e+01 0 0)
    (5.4610794e+01 0 0)
    (5.4592460e+01 0 0)
    (5.4574048e+01 0 0)
    (5.4555714e+01 0 0)
    (5.4537302e+01 0 0)
    (5.4518810e+01 0 0)
    (5.4500317e+01 0 0)
    (5.4481825e+01 0 0)
    (5.4463254e+01 0 0)
    (5.4444683e+01 0 0)
    (5.4426111e+01 0 0)
    (5.4407460e+01 0 0)
    (5.4388730e+01 0 0)
    (5.4370079e+01 0 0)
    (5.4351270e+01 0 0)
    (5.4332540e+01 0 0)
    (5.4313730e+01 0 0)
    (5.4294921e+01 0 0)
    (5.4276032e+01 0 0)
    (5.4257143e+01 0 0)
    (5.4238175e+01 0 0)
    (5.4219206e+01 0 0)
    (5.4200238e+01 0 0)
    (5.4181190e+01 0 0)
    (5.4162143e+01 0 0)
    (5.4143016e+01 0 0)
    (5.4123889e+01 0 0)
    (5.4104683e+01 0 0)
    (5.4085476e+01 0 0)
    (5.4066270e+01 0 0)
    (5.4046984e+01 0 0)
    (5.4027698e+01 0 0)
    (5.4008333e+01 0 0)
    (5.3988968e+01 0 0)
    (5.3969603e+01 0 0)
    (5.3950159e+01 0 0)
    (5.3930635e+01 0 0)
    (5.3911111e+01 0 0)
    (5.3891587e+01 0 0)
    (5.3871984e+01 0 0)
    (5.3852381e+01 0 0)
    (5.3832698e+01 0 0)
    (5.3813016e+01 0 0)
    (5.3793254e+01 0 0)
    (5.3773492e+01 0 0)
    (5.3753730e+01 0 0)
    (5.3733889e+01 0 0)
    (5.3713968e+01 0 0)
    (5.3694048e+01 0 0)
    (5.3674127e+01 0 0)
    (5.3654127e+01 0 0)
    (5.3634127e+01 0 0)
    (5.3614048e+01 0 0)
    (5.3593968e+01 0 0)
    (5.3573810e+01 0 0)
    (5.3553651e+01 0 0)
    (5.3533413e+01 0 0)
    (5.3513175e+01 0 0)
    (5.3492857e+01 0 0)
    (5.3472540e+01 0 0)
    (5.3452222e+01 0 0)
    (5.3431825e+01 0 0)
    (5.3411349e+01 0 0)
    (5.3390873e+01 0 0)
    (5.3370317e+01 0 0)
    (5.3349762e+01 0 0)
    (5.3329206e+01 0 0)
    (5.3308492e+01 0 0)
    (5.3287857e+01 0 0)
    (5.3267143e+01 0 0)
    (5.3246349e+01 0 0)
    (5.3225556e+01 0 0)
    (5.3204683e+01 0 0)
    (5.3183810e+01 0 0)
    (5.3162937e+01 0 0)
    (5.3141905e+01 0 0)
    (5.3120952e+01 0 0)
    (5.3099841e+01 0 0)
    (5.3078810e+01 0 0)
    (5.3057619e+01 0 0)
    (5.3036429e+01 0 0)
    (5.3015238e+01 0 0)
    (5.2993968e+01 0 0)
    (5.2972698e+01 0 0)
    (5.2951349e+01 0 0)
    (5.2929921e+01 0 0)
    (5.2908492e+01 0 0)
    (5.2887063e+01 0 0)
    (5.2865476e+01 0 0)
    (5.2843968e+01 0 0)
    (5.2822302e+01 0 0)
    (5.2800714e+01 0 0)
    (5.2778968e+01 0 0)
    (5.2757222e+01 0 0)
    (5.2735476e+01 0 0)
    (5.2713651e+01 0 0)
    (5.2691746e+01 0 0)
    (5.2669841e+01 0 0)
    (5.2647857e+01 0 0)
    (5.2625873e+01 0 0)
    (5.2603810e+01 0 0)
    (5.2581667e+01 0 0)
    (5.2559524e+01 0 0)
    (5.2537302e+01 0 0)
    (5.2515079e+01 0 0)
    (5.2492778e+01 0 0)
    (5.2470397e+01 0 0)
    (5.2448016e+01 0 0)
    (5.2425635e+01 0 0)
    (5.2403095e+01 0 0)
    (5.2380556e+01 0 0)
    (5.2358016e+01 0 0)
    (5.2335397e+01 0 0)
    (5.2312698e+01 0 0)
    (5.2289921e+01 0 0)
    (5.2267143e+01 0 0)
    (5.2244365e+01 0 0)
    (5.2221429e+01 0 0)
    (5.2198492e+01 0 0)
    (5.2175556e+01 0 0)
    (5.2152540e+01 0 0)
    (5.2129444e+01 0 0)
    (5.2106270e+01 0 0)
    (5.2083095e+01 0 0)
    (5.2059921e+01 0 0)
    (5.2036587e+01 0 0)
    (5.2013254e+01 0 0)
    (5.1989841e+01 0 0)
    (5.1966429e+01 0 0)
    (5.1942937e+01 0 0)
    (5.1919365e+01 0 0)
    (5.1895794e+01 0 0)
    (5.1872063e+01 0 0)
    (5.1848413e+01 0 0)
    (5.1824603e+01 0 0)
    (5.1800794e+01 0 0)
    (5.1776905e+01 0 0)
    (5.1753016e+01 0 0)
    (5.1728968e+01 0 0)
    (5.1704921e+01 0 0)
    (5.1680873e+01 0 0)
    (5.1656667e+01 0 0)
    (5.1632460e+01 0 0)
    (5.1608175e+01 0 0)
    (5.1583889e+01 0 0)
    (5.1559524e+01 0 0)
    (5.1535079e+01 0 0)
    (5.1510556e+01 0 0)
    (5.1486032e+01 0 0)
    (5.1461349e+01 0 0)
    (5.1436667e+01 0 0)
    (5.1411984e+01 0 0)
    (5.1387143e+01 0 0)
    (5.1362302e+01 0 0)
    (5.1337381e+01 0 0)
    (5.1312460e+01 0 0)
    (5.1287381e+01 0 0)
    (5.1262302e+01 0 0)
    (5.1237143e+01 0 0)
    (5.1211905e+01 0 0)
    (5.1186587e+01 0 0)
    (5.1161270e+01 0 0)
    (5.1135873e+01 0 0)
    (5.1110397e+01 0 0)
    (5.1084841e+01 0 0)
    (5.1059286e+01 0 0)
    (5.1033571e+01 0 0)
    (5.1007857e+01 0 0)
    (5.0982063e+01 0 0)
    (5.0956190e+01 0 0)
    (5.0930317e+01 0 0)
    (5.0904286e+01 0 0)
    (5.0878254e+01 0 0)
    (5.0852143e+01 0 0)
    (5.0825873e+01 0 0)
    (5.0799683e+01 0 0)
    (5.0773333e+01 0 0)
    (5.0746905e+01 0 0)
    (5.0720476e+01 0 0)
    (5.0693889e+01 0 0)
    (5.0667302e+01 0 0)
    (5.0640635e+01 0 0)
    (5.0613889e+01 0 0)
    (5.0587063e+01 0 0)
    (5.0560159e+01 0 0)
    (5.0533254e+01 0 0)
    (5.0506190e+01 0 0)
    (5.0479127e+01 0 0)
    (5.0451905e+01 0 0)
    (5.0424683e+01 0 0)
    (5.0397381e+01 0 0)
    (5.0369921e+01 0 0)
    (5.0342460e+01 0 0)
    (5.0314921e+01 0 0)
    (5.0287302e+01 0 0)
    (5.0259603e+01 0 0)
    (5.0231825e+01 0 0)
    (5.0203968e+01 0 0)
    (5.0176032e+01 0 0)
    (5.0148016e+01 0 0)
    (5.0119921e+01 0 0)
    (5.0091746e+01 0 0)
    (5.0063571e+01 0 0)
    (5.0035238e+01 0 0)
    (5.0006825e+01 0 0)
    (4.9978333e+01 0 0)
    (4.9949762e+01 0 0)
    (4.9921111e+01 0 0)
    (4.9892381e+01 0 0)
    (4.9863571e+01 0 0)
    (4.9834683e+01 0 0)
    (4.9805635e+01 0 0)
    (4.9776587e+01 0 0)
    (4.9747460e+01 0 0)
    (4.9718175e+01 0 0)
    (4.9688889e+01 0 0)
    (4.9659444e+01 0 0)
    (4.9630000e+01 0 0)
    (4.9600397e+01 0 0)
    (4.9570714e+01 0 0)
    (4.9540952e+01 0 0)
    (4.9511111e+01 0 0)
    (4.9481190e+01 0 0)
    (4.9451111e+01 0 0)
    (4.9420952e+01 0 0)
    (4.9390794e+01 0 0)
    (4.9360476e+01 0 0)
    (4.9330079e+01 0 0)
    (4.9299524e+01 0 0)
    (4.9268968e+01 0 0)
    (4.9238254e+01 0 0)
    (4.9207460e+01 0 0)
    (4.9176587e+01 0 0)
    (4.9145635e+01 0 0)
    (4.9114524e+01 0 0)
    (4.9083413e+01 0 0)
    (4.9052063e+01 0 0)
    (4.9020714e+01 0 0)
    (4.8989286e+01 0 0)
    (4.8957698e+01 0 0)
    (4.8926032e+01 0 0)
    (4.8894206e+01 0 0)
    (4.8862302e+01 0 0)
    (4.8830317e+01 0 0)
    (4.8798254e+01 0 0)
    (4.8766032e+01 0 0)
    (4.8733730e+01 0 0)
    (4.8701349e+01 0 0)
    (4.8668810e+01 0 0)
    (4.8636190e+01 0 0)
    (4.8603413e+01 0 0)
    (4.8570556e+01 0 0)
    (4.8537619e+01 0 0)
    (4.8504524e+01 0 0)
    (4.8471349e+01 0 0)
    (4.8438016e+01 0 0)
    (4.8404603e+01 0 0)
    (4.8371111e+01 0 0)
    (4.8337460e+01 0 0)
    (4.8303651e+01 0 0)
    (4.8269762e+01 0 0)
    (4.8235794e+01 0 0)
    (4.8201667e+01 0 0)
    (4.8167381e+01 0 0)
    (4.8133016e+01 0 0)
    (4.8098571e+01 0 0)
    (4.8063889e+01 0 0)
    (4.8029206e+01 0 0)
    (4.7994286e+01 0 0)
    (4.7959286e+01 0 0)
    (4.7924206e+01 0 0)
    (4.7888968e+01 0 0)
    (4.7853571e+01 0 0)
    (4.7818016e+01 0 0)
    (4.7782381e+01 0 0)
    (4.7746587e+01 0 0)
    (4.7710714e+01 0 0)
    (4.7674683e+01 0 0)
    (4.7638492e+01 0 0)
    (4.7602143e+01 0 0)
    (4.7565635e+01 0 0)
    (4.7529048e+01 0 0)
    (4.7492302e+01 0 0)
    (4.7455397e+01 0 0)
    (4.7418413e+01 0 0)
    (4.7381190e+01 0 0)
    (4.7343889e+01 0 0)
    (4.7306429e+01 0 0)
    (4.7268810e+01 0 0)
    (4.7231032e+01 0 0)
    (4.7193095e+01 0 0)
    (4.7155000e+01 0 0)
    (4.7116825e+01 0 0)
    (4.7078413e+01 0 0)
    (4.7039841e+01 0 0)
    (4.7001190e+01 0 0)
    (4.6962302e+01 0 0)
    (4.6923254e+01 0 0)
    (4.6884127e+01 0 0)
    (4.6844762e+01 0 0)
    (4.6805238e+01 0 0)
    (4.6765556e+01 0 0)
    (4.6725714e+01 0 0)
    (4.6685635e+01 0 0)
    (4.6645476e+01 0 0)
    (4.6605079e+01 0 0)
    (4.6564524e+01 0 0)
    (4.6523810e+01 0 0)
    (4.6482937e+01 0 0)
    (4.6441825e+01 0 0)
    (4.6400556e+01 0 0)
    (4.6359127e+01 0 0)
    (4.6317460e+01 0 0)
    (4.6275635e+01 0 0)
    (4.6233651e+01 0 0)
    (4.6191429e+01 0 0)
    (4.6149048e+01 0 0)
    (4.6106429e+01 0 0)
    (4.6063651e+01 0 0)
    (4.6020635e+01 0 0)
    (4.5977460e+01 0 0)
    (4.5934048e+01 0 0)
    (4.5890476e+01 0 0)
    (4.5846667e+01 0 0)
    (4.5802619e+01 0 0)
    (4.5758413e+01 0 0)
    (4.5713968e+01 0 0)
    (4.5669286e+01 0 0)
    (4.5624365e+01 0 0)
    (4.5579286e+01 0 0)
    (4.5533968e+01 0 0)
    (4.5488413e+01 0 0)
    (4.5442619e+01 0 0)
    (4.5396587e+01 0 0)
    (4.5350317e+01 0 0)
    (4.5303810e+01 0 0)
    (4.5257143e+01 0 0)
    (4.5210159e+01 0 0)
    (4.5162937e+01 0 0)
    (4.5115476e+01 0 0)
    (4.5067698e+01 0 0)
    (4.5019762e+01 0 0)
    (4.4971508e+01 0 0)
    (4.4923016e+01 0 0)
    (4.4874286e+01 0 0)
    (4.4825238e+01 0 0)
    (4.4775952e+01 0 0)
    (4.4726429e+01 0 0)
    (4.4676587e+01 0 0)
    (4.4626429e+01 0 0)
    (4.4576032e+01 0 0)
    (4.4525397e+01 0 0)
    (4.4474365e+01 0 0)
    (4.4423095e+01 0 0)
    (4.4371587e+01 0 0)
    (4.4319683e+01 0 0)
    (4.4267540e+01 0 0)
    (4.4215000e+01 0 0)
    (4.4162222e+01 0 0)
    (4.4109127e+01 0 0)
    (4.4055635e+01 0 0)
    (4.4001905e+01 0 0)
    (4.3947778e+01 0 0)
    (4.3893413e+01 0 0)
    (4.3838651e+01 0 0)
    (4.3783492e+01 0 0)
    (4.3728016e+01 0 0)
    (4.3672222e+01 0 0)
    (4.3616032e+01 0 0)
    (4.3559524e+01 0 0)
    (4.3502619e+01 0 0)
    (4.3445317e+01 0 0)
    (4.3387619e+01 0 0)
    (4.3329603e+01 0 0)
    (4.3271190e+01 0 0)
    (4.3212302e+01 0 0)
    (4.3153095e+01 0 0)
    (4.3093413e+01 0 0)
    (4.3033413e+01 0 0)
    (4.2972857e+01 0 0)
    (4.2911984e+01 0 0)
    (4.2850635e+01 0 0)
    (4.2788810e+01 0 0)
    (4.2726587e+01 0 0)
    (4.2663889e+01 0 0)
    (4.2600714e+01 0 0)
    (4.2537063e+01 0 0)
    (4.2472937e+01 0 0)
    (4.2408333e+01 0 0)
    (4.2343254e+01 0 0)
    (4.2277619e+01 0 0)
    (4.2211508e+01 0 0)
    (4.2144921e+01 0 0)
    (4.2077698e+01 0 0)
    (4.2010000e+01 0 0)
    (4.1941746e+01 0 0)
    (4.1872937e+01 0 0)
    (4.1803571e+01 0 0)
    (4.1733571e+01 0 0)
    (4.1663016e+01 0 0)
    (4.1591825e+01 0 0)
    (4.1520079e+01 0 0)
    (4.1447619e+01 0 0)
    (4.1374603e+01 0 0)
    (4.1300952e+01 0 0)
    (4.1226587e+01 0 0)
    (4.1151508e+01 0 0)
    (4.1075794e+01 0 0)
    (4.0999365e+01 0 0)
    (4.0922222e+01 0 0)
    (4.0844365e+01 0 0)
    (4.0765714e+01 0 0)
    (4.0686270e+01 0 0)
    (4.0606111e+01 0 0)
    (4.0525159e+01 0 0)
    (4.0443333e+01 0 0)
    (4.0360714e+01 0 0)
    (4.0277222e+01 0 0)
    (4.0192857e+01 0 0)
    (4.0107619e+01 0 0)
    (4.0021429e+01 0 0)
    (3.9934365e+01 0 0)
    (3.9846270e+01 0 0)
    (3.9757222e+01 0 0)
    (3.9667143e+01 0 0)
    (3.9576032e+01 0 0)
    (3.9483889e+01 0 0)
    (3.9390635e+01 0 0)
    (3.9296270e+01 0 0)
    (3.9200794e+01 0 0)
    (3.9104048e+01 0 0)
    (3.9006190e+01 0 0)
    (3.8907063e+01 0 0)
    (3.8806587e+01 0 0)
    (3.8704841e+01 0 0)
    (3.8601746e+01 0 0)
    (3.8497302e+01 0 0)
    (3.8391349e+01 0 0)
    (3.8283968e+01 0 0)
    (3.8175000e+01 0 0)
    (3.8064524e+01 0 0)
    (3.7952381e+01 0 0)
    (3.7838492e+01 0 0)
    (3.7722937e+01 0 0)
    (3.7605635e+01 0 0)
    (3.7486429e+01 0 0)
    (3.7365238e+01 0 0)
    (3.7242063e+01 0 0)
    (3.7116905e+01 0 0)
    (3.6989524e+01 0 0)
    (3.6859921e+01 0 0)
    (3.6728016e+01 0 0)
    (3.6593730e+01 0 0)
    (3.6456825e+01 0 0)
    (3.6317381e+01 0 0)
    (3.6175238e+01 0 0)
    (3.6030159e+01 0 0)
    (3.5882222e+01 0 0)
    (3.5731032e+01 0 0)
    (3.5576667e+01 0 0)
    (3.5418810e+01 0 0)
    (3.5257460e+01 0 0)
    (3.5092222e+01 0 0)
    (3.4923016e+01 0 0)
    (3.4749683e+01 0 0)
    (3.4571825e+01 0 0)
    (3.4389365e+01 0 0)
    (3.4201825e+01 0 0)
    (3.4009127e+01 0 0)
    (3.3810714e+01 0 0)
    (3.3606270e+01 0 0)
    (3.3395476e+01 0 0)
    (3.3177857e+01 0 0)
    (3.2952778e+01 0 0)
    (3.2719762e+01 0 0)
    (3.2478175e+01 0 0)
    (3.2227222e+01 0 0)
    (3.1966032e+01 0 0)
    (3.1693810e+01 0 0)
    (3.1409365e+01 0 0)
    (3.1111349e+01 0 0)
    (3.0798413e+01 0 0)
    (3.0468730e+01 0 0)
    (3.0120079e+01 0 0)
    (2.9750079e+01 0 0)
    (2.9355556e+01 0 0)
    (2.8932540e+01 0 0)
    (0.0000000e+00 0 0)
    // max z
    (6.1451825e+01 0 0)
    (6.1441667e+01 0 0)
    (6.1431508e+01 0 0)
    (6.1421349e+01 0 0)
    (6.1411190e+01 0 0)
    (6.1400952e+01 0 0)
    (6.1390794e+01 0 0)
    (6.1380556e+01 0 0)
    (6.1370317e+01 0 0)
    (6.1360159e+01 0 0)
    (6.1349921e+01 0 0)
    (6.1339683e+01 0 0)
    (6.1329444e+01 0 0)
    (6.1319127e+01 0 0)
    (6.1308889e+01 0 0)
    (6.1298651e+01 0 0)
    (6.1288333e+01 0 0)
    (6.1278016e+01 0 0)
    (6.1267778e+01 0 0)
    (6.1257460e+01 0 0)
    (6.1247143e+01 0 0)
    (6.1236825e+01 0 0)
    (6.1226429e+01 0 0)
    (6.1216111e+01 0 0)
    (6.1205794e+01 0 0)
    (6.1195397e+01 0 0)
    (6.1185000e+01 0 0)
    (6.1174683e+01 0 0)
    (6.1164286e+01 0 0)
    (6.1153889e+01 0 0)
    (6.1143492e+01 0 0)
    (6.1133016e+01 0 0)
    (6.1122619e+01 0 0)
    (6.1112222e+01 0 0)
    (6.1101746e+01 0 0)
    (6.1091270e+01 0 0)
    (6.1080873e+01 0 0)
    (6.1070397e+01 0 0)
    (6.1059921e+01 0 0)
    (6.1049444e+01 0 0)
    (6.1038889e+01 0 0)
    (6.1028413e+01 0 0)
    (6.1017937e+01 0 0)
    (6.1007381e+01 0 0)
    (6.0996825e+01 0 0)
    (6.0986349e+01 0 0)
    (6.0975794e+01 0 0)
    (6.0965238e+01 0 0)
    (6.0954683e+01 0 0)
    (6.0944048e+01 0 0)
    (6.0933492e+01 0 0)
    (6.0922857e+01 0 0)
    (6.0912302e+01 0 0)
    (6.0901667e+01 0 0)
    (6.0891032e+01 0 0)
    (6.0880397e+01 0 0)
    (6.0869762e+01 0 0)
    (6.0859127e+01 0 0)
    (6.0848492e+01 0 0)
    (6.0837778e+01 0 0)
    (6.0827143e+01 0 0)
    (6.0816429e+01 0 0)
    (6.0805714e+01 0 0)
    (6.0795000e+01 0 0)
    (6.0784286e+01 0 0)
    (6.0773571e+01 0 0)
    (6.0762857e+01 0 0)
    (6.0752143e+01 0 0)
    (6.0741349e+01 0 0)
    (6.0730556e+01 0 0)
    (6.0719841e+01 0 0)
    (6.0709048e+01 0 0)
    (6.0698254e+01 0 0)
    (6.0687460e+01 0 0)
    (6.0676667e+01 0 0)
    (6.0665794e+01 0 0)
    (6.0655000e+01 0 0)
    (6.0644127e+01 0 0)
    (6.0633254e+01 0 0)
    (6.0622460e+01 0 0)
    (6.0611587e+01 0 0)
    (6.0600714e+01 0 0)
    (6.0589762e+01 0 0)
    (6.0578889e+01 0 0)
    (6.0568016e+01 0 0)
    (6.0557063e+01 0 0)
    (6.0546111e+01 0 0)
    (6.0535238e+01 0 0)
    (6.0524286e+01 0 0)
    (6.0513333e+01 0 0)
    (6.0502302e+01 0 0)
    (6.0491349e+01 0 0)
    (6.0480397e+01 0 0)
    (6.0469365e+01 0 0)
    (6.0458333e+01 0 0)
    (6.0447381e+01 0 0)
    (6.0436349e+01 0 0)
    (6.0425317e+01 0 0)
    (6.0414206e+01 0 0)
    (6.0403175e+01 0 0)
    (6.0392143e+01 0 0)
    (6.0381032e+01 0 0)
    (6.0369921e+01 0 0)
    (6.0358810e+01 0 0)
    (6.0347698e+01 0 0)
    (6.0336587e+01 0 0)
    (6.0325476e+01 0 0)
    (6.0314365e+01 0 0)
    (6.0303175e+01 0 0)
    (6.0292063e+01 0 0)
    (6.0280873e+01 0 0)
    (6.0269683e+01 0 0)
    (6.0258492e+01 0 0)
    (6.0247302e+01 0 0)
    (6.0236111e+01 0 0)
    (6.0224841e+01 0 0)
    (6.0213651e+01 0 0)
    (6.0202381e+01 0 0)
    (6.0191111e+01 0 0)
    (6.0179841e+01 0 0)
    (6.0168571e+01 0 0)
    (6.0157302e+01 0 0)
    (6.0146032e+01 0 0)
    (6.0134683e+01 0 0)
    (6.0123413e+01 0 0)
    (6.0112063e+01 0 0)
    (6.0100714e+01 0 0)
    (6.0089365e+01 0 0)
    (6.0078016e+01 0 0)
    (6.0066667e+01 0 0)
    (6.0055238e+01 0 0)
    (6.0043889e+01 0 0)
    (6.0032460e+01 0 0)
    (6.0021032e+01 0 0)
    (6.0009603e+01 0 0)
    (5.9998175e+01 0 0)
    (5.9986746e+01 0 0)
    (5.9975238e+01 0 0)
    (5.9963810e+01 0 0)
    (5.9952302e+01 0 0)
    (5.9940873e+01 0 0)
    (5.9929365e+01 0 0)
    (5.9917857e+01 0 0)
    (5.9906270e+01 0 0)
    (5.9894762e+01 0 0)
    (5.9883254e+01 0 0)
    (5.9871667e+01 0 0)
    (5.9860079e+01 0 0)
    (5.9848492e+01 0 0)
    (5.9836905e+01 0 0)
    (5.9825317e+01 0 0)
    (5.9813730e+01 0 0)
    (5.9802063e+01 0 0)
    (5.9790476e+01 0 0)
    (5.9778810e+01 0 0)
    (5.9767143e+01 0 0)
    (5.9755476e+01 0 0)
    (5.9743810e+01 0 0)
    (5.9732063e+01 0 0)
    (5.9720397e+01 0 0)
    (5.9708651e+01 0 0)
    (5.9696984e+01 0 0)
    (5.9685238e+01 0 0)
    (5.9673492e+01 0 0)
    (5.9661667e+01 0 0)
    (5.9649921e+01 0 0)
    (5.9638175e+01 0 0)
    (5.9626349e+01 0 0)
    (5.9614524e+01 0 0)
    (5.9602698e+01 0 0)
    (5.9590873e+01 0 0)
    (5.9579048e+01 0 0)
    (5.9567143e+01 0 0)
    (5.9555317e+01 0 0)
    (5.9543413e+01 0 0)
    (5.9531508e+01 0 0)
    (5.9519603e+01 0 0)
    (5.9507698e+01 0 0)
    (5.9495794e+01 0 0)
    (5.9483889e+01 0 0)
    (5.9471905e+01 0 0)
    (5.9459921e+01 0 0)
    (5.9447937e+01 0 0)
    (5.9435952e+01 0 0)
    (5.9423968e+01 0 0)
    (5.9411984e+01 0 0)
    (5.9399921e+01 0 0)
    (5.9387937e+01 0 0)
    (5.9375873e+01 0 0)
    (5.9363810e+01 0 0)
    (5.9351746e+01 0 0)
    (5.9339683e+01 0 0)
    (5.9327540e+01 0 0)
    (5.9315476e+01 0 0)
    (5.9303333e+01 0 0)
    (5.9291190e+01 0 0)
    (5.9279048e+01 0 0)
    (5.9266905e+01 0 0)
    (5.9254683e+01 0 0)
    (5.9242540e+01 0 0)
    (5.9230317e+01 0 0)
    (5.9218095e+01 0 0)
    (5.9205873e+01 0 0)
    (5.9193651e+01 0 0)
    (5.9181429e+01 0 0)
    (5.9169127e+01 0 0)
    (5.9156905e+01 0 0)
    (5.9144603e+01 0 0)
    (5.9132302e+01 0 0)
    (5.9120000e+01 0 0)
    (5.9107698e+01 0 0)
    (5.9095317e+01 0 0)
    (5.9083016e+01 0 0)
    (5.9070635e+01 0 0)
    (5.9058254e+01 0 0)
    (5.9045873e+01 0 0)
    (5.9033492e+01 0 0)
    (5.9021032e+01 0 0)
    (5.9008651e+01 0 0)
    (5.8996190e+01 0 0)
    (5.8983730e+01 0 0)
    (5.8971270e+01 0 0)
    (5.8958810e+01 0 0)
    (5.8946270e+01 0 0)
    (5.8933810e+01 0 0)
    (5.8921270e+01 0 0)
    (5.8908730e+01 0 0)
    (5.8896190e+01 0 0)
    (5.8883651e+01 0 0)
    (5.8871032e+01 0 0)
    (5.8858492e+01 0 0)
    (5.8845873e+01 0 0)
    (5.8833254e+01 0 0)
    (5.8820635e+01 0 0)
    (5.8808016e+01 0 0)
    (5.8795317e+01 0 0)
    (5.8782698e+01 0 0)