FoamFile
{
    version     2.0;
    format      ascii;
    class       scalarAverageField;
    object      epsilon;
    note        "Computed assuming turbulence in equilibirum";
}

// * * * * * * * * * * * * * * * * * * * * * * * * * * * * * * * * * * * * * //

// Average
0

(
    // min z
    6.4041884e+04
    6.4068064e+04
    6.4094733e+04
    6.4121788e+04
    6.4149437e+04
    6.4177472e+04
    6.4206105e+04
    6.4235120e+04
    6.4264627e+04
    6.4294627e+04
    6.4325118e+04
    6.4355995e+04
    6.4387471e+04
    6.4419333e+04
    6.4451687e+04
    6.4484534e+04
    6.4517875e+04
    6.4551712e+04
    6.4586041e+04
    6.4620757e+04
    6.4656076e+04
    6.4691785e+04
    6.4727987e+04
    6.4764685e+04
    6.4801879e+04
    6.4839462e+04
    6.4877651e+04
    6.4916228e+04
    6.4955305e+04
    6.4994879e+04
    6.5034950e+04
    6.5075412e+04
    6.5116482e+04
    6.5157943e+04
    6.5199904e+04
    6.5242366e+04
    6.5285328e+04
    6.5328682e+04
    6.5372646e+04
    6.5417004e+04
    6.5461865e+04
    6.5507229e+04
    6.5552986e+04
    6.5599356e+04
    6.5646121e+04
    6.5693392e+04
    6.5741166e+04
    6.5789447e+04
    6.5838123e+04
    6.5887307e+04
    6.5936998e+04
    6.5987195e+04
    6.6037902e+04
    6.6089115e+04
    6.6140729e+04
    6.6192851e+04
    6.6245487e+04
    6.6298635e+04
    6.6352183e+04
    6.6406217e+04
    6.6460789e+04
    6.6515873e+04
    6.6571472e+04
    6.6627472e+04
    6.6683959e+04
    6.6740988e+04
    6.6798534e+04
    6.6856594e+04
    6.6915059e+04
    6.6974013e+04
    6.7033513e+04
    6.7093421e+04
    6.7153958e+04
    6.7214903e+04
    6.7276338e+04
    6.7338323e+04
    6.7400717e+04
    6.7463633e+04
    6.7527071e+04
    6.7591002e+04
    6.7655486e+04
    6.7720383e+04
    6.7785802e+04
    6.7851749e+04
    6.7918078e+04
    6.7985077e+04
    6.8052491e+04
    6.8120433e+04
    6.8188789e+04
    6.8257645e+04
    6.8327175e+04
    6.8397007e+04
    6.8467487e+04
    6.8538384e+04
    6.8609781e+04
    6.8681744e+04
    6.8754243e+04
    6.8827160e+04
    6.8900614e+04
    6.8974570e+04
    6.9048984e+04
    6.9124048e+04
    6.9199538e+04
    6.9275450e+04
    6.9351985e+04
    6.9428978e+04
    6.9506513e+04
    6.9584591e+04
    6.9663096e+04
    6.9742111e+04
    6.9821703e+04
    6.9901726e+04
    6.9982410e+04
    7.0063527e+04
    7.0145038e+04
    7.0227249e+04
    7.0309893e+04
    7.0393088e+04
    7.0476835e+04
    7.0560978e+04
    7.0645711e+04
    7.0730997e+04
    7.0816720e+04
    7.0903115e+04
    7.0989912e+04
    7.1077185e+04
    7.1165133e+04
    7.1253522e+04
    7.1342353e+04
    7.1431823e+04
    7.1521774e+04
    7.1612287e+04
    7.1703360e+04
    7.1794881e+04
    7.1886928e+04
    7.1979578e+04
    7.2072676e+04
    7.2166340e+04
    7.2260573e+04
    7.2355335e+04
    7.2450588e+04
    7.2546409e+04
    7.2642685e+04
    7.2739653e+04
    7.2837032e+04
    7.2934908e+04
    7.3033478e+04
    7.3132506e+04
    7.3232109e+04
    7.3332131e+04
    7.3432893e+04
    7.3533993e+04
    7.3635794e+04
    7.3738059e+04
    7.3840863e+04
    7.3944294e+04
    7.4048188e+04
    7.4152668e+04
    7.4257737e+04
    7.4363227e+04
    7.4469349e+04
    7.4576063e+04
    7.4683245e+04
    7.4791140e+04
    7.4899340e+04
    7.5008302e+04
    7.5117736e+04
    7.5227765e+04
    7.5338269e+04
    7.5449494e+04
    7.5561027e+04
    7.5673329e+04
    7.5786109e+04
    7.5899492e+04
    7.6013478e+04
    7.6127899e+04
    7.6242971e+04
    7.6358527e+04
    7.6474815e+04
    7.6591587e+04
    7.6708798e+04
    7.6826668e+04
    7.6945149e+04
    7.7064244e+04
    7.7183828e+04
    7.7303978e+04
    7.7424795e+04
    7.7546105e+04
    7.7668033e+04
    7.7790580e+04
    7.7913576e+04
    7.8037242e+04
    7.8161531e+04
    7.8286320e+04
    7.8411735e+04
    7.8537599e+04
    7.8664269e+04
    7.8791316e+04
    7.8919117e+04
    7.9047426e+04
    7.9176315e+04
    7.9305891e+04
    7.9435973e+04
    7.9566693e+04
    7.9697922e+04
    7.9829738e+04
    7.9962248e+04
    8.0095397e+04
    8.0229061e+04
    8.0363370e+04
    8.0498142e+04
    8.0633613e+04
    8.0769733e+04
    8.0906371e+04
    8.1043659e+04
    8.1181545e+04
    8.1320139e+04
    8.1459256e+04
    8.1598898e+04
    8.1739327e+04
    8.1880228e+04
    8.2021714e+04
    8.2163859e+04
    8.2306666e+04
    8.2450136e+04
    8.2594084e+04
    8.2738753e+04
    8.2883958e+04
    8.3029962e+04
    8.3176373e+04
    8.3323530e+04
    8.3471284e+04
    8.3619711e+04
    8.3768682e+04
    8.3918328e+04
    8.4068595e+04
    8.4219463e+04
    8.4371014e+04
    8.4523114e+04
    8.4676030e+04
    8.4829303e+04
    8.4983455e+04
    8.5138162e+04
    8.5293555e+04
    8.5449506e+04
    8.5606090e+04
    8.5763423e+04
    8.5921318e+04
    8.6079909e+04
    8.6239195e+04
    8.6398986e+04
    8.6559535e+04
    8.6720653e+04
    8.6882606e+04
    8.7044995e+04
    8.7208162e+04
    8.7371961e+04
    8.7536471e+04
    8.7701553e+04
    8.7867348e+04
    8.8033792e+04
    8.8200876e+04
    8.8368676e+04
    8.8537058e+04
    8.8706157e+04
    8.8875913e+04
    8.9046316e+04
    8.9217445e+04
    8.9389297e+04
    8.9561737e+04
    8.9734841e+04
    8.9908738e+04
    9.0083228e+04
    9.0258451e+04
    9.0434271e+04
    9.0610758e+04
    9.0788048e+04
    9.0965937e+04
    9.1144567e+04
    9.1323938e+04
    9.1503913e+04
    9.1684565e+04
    9.1866029e+04
    9.2048103e+04
    9.2230785e+04
    9.2414360e+04
    9.2598478e+04
    9.2783278e+04
    9.2968972e+04
    9.3155144e+04
    9.3342216e+04
    9.3529838e+04
    9.3718291e+04
    9.3907364e+04
    9.4097205e+04
    9.4287814e+04
    9.4478976e+04
    9.4670981e+04
    9.4863756e+04
    9.5057164e+04
    9.5251203e+04
    9.5446091e+04
    9.5641686e+04
    9.5837916e+04
    9.6035075e+04
    9.6232871e+04
    9.6431237e+04
    9.6630461e+04
    9.6830473e+04
    9.7031134e+04
    9.7232584e+04
    9.7434758e+04
    9.7637652e+04
    9.7841344e+04
    9.8045691e+04
    9.8250837e+04
    9.8456711e+04
    9.8663464e+04
    9.8870879e+04
    9.9078952e+04
    9.9287834e+04
    9.9497452e+04
    9.9707960e+04
    9.9919134e+04
    1.0013098e+05
    1.0034379e+05
    1.0055719e+05
    1.0077135e+05
    1.0098633e+05
    1.0120213e+05
    1.0141876e+05
    1.0163599e+05
    1.0185399e+05
    1.0207281e+05
    1.0229247e+05
    1.0251296e+05
    1.0273407e+05
    1.0295609e+05
    1.0317881e+05
    1.0340236e+05
    1.0362677e+05
    1.0385179e+05
    1.0407774e+05
    1.0430438e+05
    1.0453189e+05
    1.0476024e+05
    1.0498922e+05
    1.0521914e+05
    1.0544992e+05
    1.0568141e+05
    1.0591376e+05
    1.0614674e+05
    1.0638067e+05
    1.0661548e+05
    1.0685100e+05
    1.0708739e+05
    1.0732442e+05
    1.0756257e+05
    1.0780129e+05
    1.0804104e+05
    1.0828152e+05
    1.0852265e+05
    1.0876475e+05
    1.0900774e+05
    1.0925162e+05
    1.0949623e+05
    1.0974150e+05
    1.0998791e+05
    1.1023506e+05
    1.1048296e+05
    1.1073176e+05
    1.1098137e+05
    1.1123182e+05
    1.1148318e+05
    1.1173545e+05
    1.1198848e+05
    1.1224233e+05
    1.1249703e+05
    1.1275264e+05
    1.1300918e+05
    1.1326649e+05
    1.1352462e+05
    1.1378378e+05
    1.1404370e+05
    1.1430456e+05
    1.1456618e+05
    1.1482865e+05
    1.1509215e+05
    1.1535643e+05
    1.1562165e+05
    1.1588765e+05
    1.1615460e+05
    1.1642240e+05
    1.1669108e+05
    1.1696072e+05
    1.1723130e+05
    1.1750269e+05
    1.1777493e+05
    1.1804807e+05
    1.1832217e+05
    1.1859723e+05
    1.1887310e+05
    1.1914984e+05
    1.1942748e+05
    1.1970609e+05
    1.1998568e+05
    1.2026608e+05
    1.2054737e+05
    1.2082973e+05
    1.2111291e+05
    1.2139691e+05
    1.2168207e+05
    1.2196795e+05
    1.2225476e+05
    1.2254273e+05
    1.2283135e+05
    1.2312115e+05
    1.2341168e+05
    1.2370332e+05
    1.2399579e+05
    1.2428926e+05
    1.2458359e+05
    1.2487899e+05
    1.2517516e+05
    1.2547253e+05
    1.2577075e+05
    1.2606981e+05
    1.2636980e+05
    1.2667091e+05
    1.2697306e+05
    1.2727606e+05
    1.2757993e+05
    1.2788490e+05
    1.2819083e+05
    1.2849764e+05
    1.2880549e+05
    1.2911438e+05
    1.2942404e+05
    1.2973485e+05
    1.3004672e+05
    1.3035946e+05
    1.3067326e+05
    1.3098784e+05
    1.3130358e+05
    1.3162039e+05
    1.3193809e+05
    1.3225686e+05
    1.3257659e+05
    1.3289732e+05
    1.3321913e+05
    1.3354184e+05
    1.3386562e+05
    1.3419021e+05
    1.3451616e+05
    1.3484284e+05
    1.3517080e+05
    1.3549966e+05
    1.3582951e+05
    1.3616039e+05
    1.3649236e+05
    1.3682526e+05
    1.3715926e+05
    1.3749425e+05
    1.3783029e+05
    1.3816743e+05
    1.3850569e+05
    1.3884489e+05
    1.3918509e+05
    1.3952633e+05
    1.3986871e+05
    1.4021221e+05
    1.4055665e+05
    1.4090211e+05
    1.4124882e+05
    1.4159648e+05
    1.4194509e+05
    1.4229503e+05
    1.4264581e+05
    1.4299767e+05
    1.4335067e+05
    1.4370483e+05
    1.4406014e+05
    1.4441630e+05
    1.4477356e+05
    1.4513197e+05
    1.4549154e+05
    1.4585228e+05
    1.4621388e+05
    1.4657659e+05
    1.4694065e+05
    1.4730571e+05
    1.4767175e+05
    1.4803886e+05
    1.4840726e+05
    1.4877686e+05
    1.4914745e+05
    1.4951905e+05
    1.4989171e+05
    1.5026569e+05
    1.5064088e+05
    1.5101708e+05
    1.5139445e+05
    1.5177355e+05
    1.5215386e+05
    1.5253566e+05
    1.5291899e+05
    1.5330388e+05
    1.5369013e+05
    1.5407780e+05
    1.5446717e+05
    1.5485790e+05
    1.5525020e+05
    1.5564387e+05
    1.5603899e+05
    1.5643582e+05
    1.5683404e+05
    1.5723384e+05
    1.5763503e+05
    1.5803788e+05
    1.5844206e+05
    1.5884805e+05
    1.5925544e+05
    1.5966424e+05
    1.6007452e+05
    1.6048655e+05
    1.6090000e+05
    1.6131507e+05
    1.6173177e+05
    1.6214977e+05
    1.6256953e+05
    1.6299074e+05
    1.6341378e+05
    1.6383808e+05
    1.6426388e+05
    1.6469148e+05
    1.6512073e+05
    1.6555144e+05
    1.6598383e+05
    1.6641753e+05
    1.6685305e+05
    1.6729025e+05
    1.6772892e+05
    1.6816928e+05
    1.6861098e+05
    1.6905452e+05
    1.6949975e+05
    1.6994649e+05
    1.7039493e+05
    1.7084472e+05
    1.7129637e+05
    1.7174974e+05
    1.7220463e+05
    1.7266124e+05
    1.7311922e+05
    1.7357929e+05
    1.7404068e+05
    1.7450372e+05
    1.7496829e+05
    1.7543596e+05
    1.7590382e+05
    1.7637344e+05
    1.7684461e+05
    1.7731754e+05
    1.7779224e+05
    1.7827011e+05
    1.7874815e+05
    1.7922797e+05
    1.7970936e+05
    1.8019233e+05
    1.8067873e+05
    1.8116530e+05
    1.8165367e+05
    1.8214363e+05
    1.8263540e+05
    1.8312877e+05
    1.8362562e+05
    1.8412242e+05
    1.8462105e+05
    1.8512151e+05
    1.8562358e+05
    1.8612919e+05
    1.8663496e+05
    1.8714236e+05
    1.8765160e+05
    1.8816249e+05
    1.8867523e+05
    1.8919158e+05
    1.8970785e+05
    1.9022599e+05
    1.9074579e+05
    1.9126747e+05
    1.9179104e+05
    1.9231806e+05
    1.9284520e+05
    1.9337402e+05
    1.9390475e+05
    1.9443738e+05
    1.9497351e+05
    1.9550976e+05
    1.9604770e+05
    1.9658758e+05
    1.9712938e+05
    1.9767289e+05
    1.9822019e+05
    1.9876737e+05
    1.9931673e+05
    1.9986758e+05
    2.0042040e+05
    2.0097705e+05
    2.0153380e+05
    2.0209230e+05
    2.0265254e+05
    2.0321499e+05
    2.0377920e+05
    2.0434708e+05
    2.0491505e+05
    2.0548501e+05
    2.0605676e+05
    2.0663051e+05
    2.0720798e+05
    2.0778577e+05
    2.0836512e+05
    2.0894649e+05
    2.0952989e+05
    2.1011533e+05
    2.1070456e+05
    2.1129386e+05
    2.1188497e+05
    2.1247814e+05
    2.1307313e+05
    2.1367221e+05
    2.1427134e+05
    2.1487231e+05
    2.1547536e+05
    2.1608025e+05
    2.1668723e+05
    2.1729836e+05
    2.1790930e+05
    2.1852234e+05
    2.1913725e+05
    2.1975427e+05
    2.2037341e+05
    2.2099653e+05
    2.2161968e+05
    2.2224472e+05
    2.2287190e+05
    2.2350122e+05
    2.2413457e+05
    2.2476795e+05
    2.2540324e+05
    2.2604069e+05
    2.2668030e+05
    2.2732185e+05
    2.2796774e+05
    2.2861339e+05
    2.2926123e+05
    2.2991102e+05
    2.3056300e+05
    2.3121938e+05
    2.3187552e+05
    2.3253388e+05
    2.3319420e+05
    2.3385673e+05
    2.3452149e+05
    2.3519048e+05
    2.3585947e+05
    2.3653044e+05
    2.3720365e+05
    2.3787912e+05
    2.3855887e+05
    2.3923861e+05
    2.3992035e+05
    2.4060437e+05
    2.4129041e+05
    2.4197873e+05
    2.4267166e+05
    2.4336430e+05
    2.4405924e+05
    2.4475622e+05
    2.4545552e+05
    2.4615948e+05
    2.4686315e+05
    2.4756887e+05
    2.4827719e+05
    2.4898731e+05
    2.4970004e+05
    2.5041725e+05
    2.5113415e+05
    2.5185366e+05
    2.5257501e+05
    2.5329898e+05
    2.5402724e+05
    2.5475569e+05
    2.5548626e+05
    2.5621922e+05
    2.5695430e+05
    2.5769151e+05
    2.5843387e+05
    2.5917590e+05
    2.5992006e+05
    2.6066664e+05
    2.6141564e+05
    2.6216680e+05
    2.6292293e+05
    2.6367869e+05
    2.6443690e+05
    2.6519729e+05
    2.6596013e+05
    2.6672800e+05
    2.6749549e+05
    2.6826546e+05
    2.6903763e+05
    2.6981227e+05
    2.7058941e+05
    2.7137138e+05
    2.7215296e+05
    2.7293704e+05
    2.7372363e+05
    2.7451245e+05
    2.7530646e+05
    2.7610006e+05
    2.7689618e+05
    2.7769484e+05
    2.7849465e+05
    2.7929811e+05
    2.8010628e+05
    2.8091654e+05
    2.8172600e+05
    2.8254028e+05
    2.8335657e+05
    2.8417481e+05
    2.8499514e+05
    2.8582032e+05
    2.8664470e+05
    2.8747396e+05
    2.8830241e+05
    2.8913855e+05
    2.8997394e+05
    2.9081139e+05
    2.9165089e+05
    2.9249531e+05
    2.9334465e+05
    2.9419036e+05
    2.9504101e+05
    2.9589374e+05
    2.9675145e+05
    2.9760836e+05
    2.9847024e+05
    2.9933425e+05
    3.0020036e+05
    3.0106859e+05
    3.0195996e+05
    3.0289563e+05
    3.0388231e+05
    3.0490725e+05
    3.0597988e+05
    3.0709740e+05
    3.0825996e+05
    3.0947259e+05
    3.1072892e+05
    3.1202777e+05
    3.1337525e+05
    3.1476855e+05
    3.1620780e+05
    3.1769952e+05
    3.1923139e+05
    3.2081272e+05
    3.2243757e+05
    3.2411220e+05
    3.2584133e+05
    3.2761014e+05
    3.2942613e+05
    3.3129258e+05
    3.3320342e+05
    3.3516504e+05
    3.3718364e+05
    3.3924132e+05
    3.4134713e+05
    3.4350122e+05
    3.4570697e+05
    3.4796853e+05
    3.5027192e+05
    3.5262424e+05
    3.5502563e+05
    3.5747625e+05
    3.5997962e+05
    3.6254119e+05
    3.6514411e+05
    3.6779693e+05
    3.7049978e+05
    3.7325283e+05
    3.7606956e+05
    3.7892374e+05
    3.8183211e+05
    3.8479134e+05
    3.8780160e+05
    3.9086302e+05
    3.9399071e+05
    3.9715523e+05
    4.0037507e+05
    4.0364307e+05
    4.0696674e+05
    4.1035886e+05
    4.1378729e+05
    4.1726821e+05
    4.2080560e+05
    4.2439199e+05
    4.2803521e+05
    4.3174953e+05
    4.3549953e+05
    4.3930302e+05
    4.4316015e+05
    4.4707513e+05
    4.5104006e+05
    4.5508280e+05
    4.5916058e+05
    4.6329287e+05
    4.6747982e+05
    4.7172159e+05
    4.7604360e+05
    4.8039583e+05
    4.8480768e+05
    4.8927508e+05
    4.9379816e+05
    4.9837710e+05
    5.0303924e+05
    5.0773071e+05
    5.1248305e+05
    5.1729198e+05
    5.2215764e+05
    5.2710436e+05
    5.3208428e+05
    5.3712616e+05
    5.4222074e+05
    5.4737768e+05
    5.5259242e+05
    5.5789100e+05
    5.6322212e+05
    5.6861151e+05
    5.7406438e+05
    5.7957088e+05
    5.8516863e+05
    5.9079834e+05
    5.9648724e+05
    6.0223549e+05
    6.0804328e+05
    6.1391607e+05
    6.1987258e+05
    6.2586568e+05
    6.3191905e+05
    6.3803286e+05
    6.4420728e+05
    6.5047875e+05
    6.5677522e+05
    6.6313851e+05
    6.6956316e+05
    6.7604355e+05
    6.8259724e+05
    6.8923950e+05
    6.9591162e+05
    7.0265193e+05
    7.0944867e+05
    7.1631405e+05
    7.2324224e+05
    7.3026777e+05
    7.3732240e+05
    7.4444667e+05
    7.5162816e+05
    7.5887973e+05
    7.6623115e+05
    7.7361106e+05
    7.8105525e+05
    7.8856389e+05
    7.9613713e+05
    8.0378192e+05
    8.1152960e+05
    8.1929812e+05
    8.2713888e+05
    8.3504522e+05
    8.4302435e+05
    8.5110184e+05
    8.5921348e+05
    8.6738429e+05
    8.7562881e+05
    8.8394005e+05
    8.9231821e+05
    9.0080482e+05
    9.0932513e+05
    9.1790541e+05
    9.2656092e+05
    9.3528434e+05
    9.4411882e+05
    9.5297887e+05
    9.6190731e+05
    9.7090434e+05
    9.7997817e+05
    9.8912106e+05
    9.9837003e+05
    1.0076518e+06
    1.0170032e+06
    1.0264328e+06
    1.0359239e+06
    1.0455319e+06
    1.0551724e+06
    1.0648834e+06
    1.0746653e+06
    1.0845181e+06
    1.0944420e+06
    1.1044860e+06
    1.1145620e+06
    1.1247008e+06
    1.1349206e+06
    1.1452125e+06
    1.1556272e+06
    1.1660643e+06
    1.1765741e+06
    1.1871662e+06
    1.1978220e+06
    1.2085606e+06
    1.2194253e+06
    1.2303116e+06
    1.2412718e+06
    1.2523060e+06
    1.2634245e+06
    1.2746076e+06
    1.2859301e+06
    1.2972732e+06
    1.3086915e+06
    1.3201851e+06
    1.3317541e+06
    1.3434553e+06
    1.3551870e+06
    1.3669841e+06
    1.3788682e+06
    1.3908289e+06
    1.4028663e+06
    1.4150392e+06
    1.4272422e+06
    1.4395113e+06
    1.4518693e+06
    1.4642936e+06
    1.4768677e+06
    1.4894599e+06
    1.5021305e+06
    1.5148796e+06
    1.5277193e+06
    1.5406261e+06
    1.5536867e+06
    1.5667644e+06
    1.5799218e+06
    1.5931590e+06
    1.6064762e+06
    1.6199380e+06
    1.6334286e+06
    1.6469874e+06
    1.6606396e+06
    1.6743729e+06
    1.6881874e+06
    1.7021502e+06
    1.7161282e+06
    1.7301882e+06
    1.7443433e+06
    1.7585809e+06
    1.7729563e+06
    1.7873595e+06
    1.8018457e+06
    1.8164149e+06
    1.8310814e+06
    1.8458176e+06
    1.8607225e+06
    1.8756268e+06
    1.8906294e+06
    1.9057164e+06
    1.9208881e+06
    1.9361446e+06
    1.9515739e+06
    1.9670011e+06
    1.9825285e+06
    1.9981268e+06
    2.0138258e+06
    2.0296862e+06
    2.0455581e+06
    2.0615165e+06
    2.0775771e+06
    2.0937092e+06
    2.1099441e+06
    2.1263283e+06
    2.1427387e+06
    2.1592369e+06
    2.1758231e+06
    2.1925138e+06
    2.2093565e+06
    2.2262085e+06
    2.2431659e+06
    2.2602125e+06
    2.2773485e+06
    2.2945741e+06
    2.3119715e+06
    2.3293773e+06
    2.3442552e+06

    // max z
    6.4041884e+04
    6.4068064e+04
    6.4094733e+04
    6.4121788e+04
    6.4149437e+04
    6.4177472e+04
    6.4206105e+04
    6.4235120e+04
    6.4264627e+04
    6.4294627e+04
    6.4325118e+04
    6.4355995e+04
    6.4387471e+04
    6.4419333e+04
    6.4451687e+04
    6.4484534e+04
    6.4517875e+04
    6.4551712e+04
    6.4586041e+04
    6.4620757e+04
    6.4656076e+04
    6.4691785e+04
    6.4727987e+04
    6.4764685e+04
    6.4801879e+04
    6.4839462e+04
    6.4877651e+04
    6.4916228e+04
    6.4955305e+04
    6.4994879e+04
    6.5034950e+04
    6.5075412e+04
    6.5116482e+04
    6.5157943e+04
    6.5199904e+04
    6.5242366e+04
    6.5285328e+04
    6.5328682e+04
    6.5372646e+04
    6.5417004e+04
    6.5461865e+04
    6.5507229e+04
    6.5552986e+04
    6.5599356e+04
    6.5646121e+04
    6.5693392e+04
    6.5741166e+04
    6.5789447e+04
    6.5838123e+04
    6.5887307e+04
    6.5936998e+04
    6.5987195e+04
    6.6037902e+04
    6.6089115e+04
    6.6140729e+04
    6.6192851e+04
    6.6245487e+04
    6.6298635e+04
    6.6352183e+04
    6.6406217e+04
    6.6460789e+04
    6.6515873e+04
    6.6571472e+04
    6.6627472e+04
    6.6683959e+04
    6.6740988e+04
    6.6798534e+04
    6.6856594e+04
    6.6915059e+04
    6.6974013e+04
    6.7033513e+04
    6.7093421e+04
    6.7153958e+04
    6.7214903e+04
    6.7276338e+04
    6.7338323e+04
    6.7400717e+04
    6.7463633e+04
    6.7527071e+04
    6.7591002e+04
    6.7655486e+04
    6.7720383e+04
    6.7785802e+04
    6.7851749e+04
    6.7918078e+04
    6.7985077e+04
    6.8052491e+04
    6.8120433e+04
    6.8188789e+04
    6.8257645e+04
    6.8327175e+04
    6.8397007e+04
    6.8467487e+04
    6.8538384e+04
    6.8609781e+04
    6.8681744e+04
    6.8754243e+04
    6.8827160e+04
    6.8900614e+04
    6.8974570e+04
    6.9048984e+04
    6.9124048e+04
    6.9199538e+04
    6.9275450e+04
    6.9351985e+04
    6.9428978e+04
    6.9506513e+04
    6.9584591e+04
    6.9663096e+04
    6.9742111e+04
    6.9821703e+04
    6.9901726e+04
    6.9982410e+04
    7.0063527e+04
    7.0145038e+04
    7.0227249e+04
    7.0309893e+04
    7.0393088e+04
    7.0476835e+04
    7.0560978e+04
    7.0645711e+04
    7.0730997e+04
    7.0816720e+04
    7.0903115e+04
    7.0989912e+04
    7.1077185e+04
    7.1165133e+04
    7.1253522e+04
    7.1342353e+04
    7.1431823e+04
    7.1521774e+04
    7.1612287e+04
    7.1703360e+04
    7.1794881e+04
    7.1886928e+04
    7.1979578e+04
    7.2072676e+04
    7.2166340e+04
    7.2260573e+04
    7.2355335e+04
    7.2450588e+04
    7.2546409e+04
    7.2642685e+04
    7.2739653e+04
    7.2837032e+04
    7.2934908e+04
    7.3033478e+04
    7.3132506e+04
    7.3232109e+04
    7.3332131e+04
    7.3432893e+04
    7.3533993e+04
    7.3635794e+04
    7.3738059e+04
    7.3840863e+04
    7.3944294e+04
    7.4048188e+04
    7.4152668e+04
    7.4257737e+04
    7.4363227e+04
    7.4469349e+04
    7.4576063e+04
    7.4683245e+04
    7.4791140e+04
    7.4899340e+04
    7.5008302e+04
    7.5117736e+04
    7.5227765e+04
    7.5338269e+04
    7.5449494e+04
    7.5561027e+04
    7.5673329e+04
    7.5786109e+04
    7.5899492e+04
    7.6013478e+04
    7.6127899e+04
    7.6242971e+04
    7.6358527e+04
    7.6474815e+04
    7.6591587e+04
    7.6708798e+04
    7.6826668e+04
    7.6945149e+04
    7.7064244e+04
    7.7183828e+04
    7.7303978e+04
    7.7424795e+04
    7.7546105e+04
    7.7668033e+04
    7.7790580e+04
    7.7913576e+04
    7.8037242e+04
    7.8161531e+04
    7.8286320e+04
    7.8411735e+04
    7.8537599e+04
    7.8664269e+04
    7.8791316e+04
    7.8919117e+04
    7.9047426e+04
    7.9176315e+04
    7.9305891e+04
    7.9435973e+04
    7.9566693e+04
    7.9697922e+04
    7.9829738e+04
    7.9962248e+04
    8.0095397e+04
    8.0229061e+04
    8.0363370e+04
    8.0498142e+04
    8.0633613e+04
    8.0769733e+04
    8.0906371e+04
    8.1043659e+04
    8.1181545e+04
    8.1320139e+04
    8.1459256e+04
    8.1598898e+04
    8.1739327e+04
    8.1880228e+04
    8.2021714e+04
    8.2163859e+04
    8.2306666e+04
    8.2450136e+04
    8.2594084e+04
    8.2738753e+04
    8.2883958e+04
    8.3029962e+04
    8.3176373e+04
    8.3323530e+04
    8.3471284e+04
    8.3619711e+04
    8.3768682e+04
    8.3918328e+04
    8.4068595e+04
    8.4219463e+04
    8.4371014e+04
    8.4523114e+04
    8.4676030e+04
    8.4829303e+04
    8.4983455e+04
    8.5138162e+04
    8.5293555e+04
    8.5449506e+04
    8.5606090e+04
    8.5763423e+04
    8.5921318e+04
    8.6079909e+04
    8.6239195e+04
    8.6398986e+04
    8.6559535e+04
    8.6720653e+04
    8.6882606e+04
    8.7044995e+04
    8.7208162e+04
    8.7371961e+04
    8.7536471e+04
    8.7701553e+04
    8.7867348e+04
    8.8033792e+04
    8.8200876e+04
    8.8368676e+04
    8.8537058e+04
    8.8706157e+04
    8.8875913e+04
    8.9046316e+04
    8.9217445e+04
    8.9389297e+04
    8.9561737e+04
    8.9734841e+04
    8.9908738e+04
    9.0083228e+04
    9.0258451e+04
    9.0434271e+04
    9.0610758e+04
    9.0788048e+04
    9.0965937e+04
    9.1144567e+04
    9.1323938e+04
    9.1503913e+04
    9.1684565e+04
    9.1866029e+04
    9.2048103e+04
    9.2230785e+04
    9.2414360e+04
    9.2598478e+04
    9.2783278e+04
    9.2968972e+04
    9.3155144e+04
    9.3342216e+04
    9.3529838e+04
    9.3718291e+04
    9.3907364e+04
    9.4097205e+04
    9.4287814e+04
    9.4478976e+04
    9.4670981e+04
    9.4863756e+04
    9.5057164e+04
    9.5251203e+04
    9.5446091e+04
    9.5641686e+04
    9.5837916e+04
    9.6035075e+04
    9.6232871e+04
    9.6431237e+04
    9.6630461e+04
    9.6830473e+04
    9.7031134e+04
    9.7232584e+04
    9.7434758e+04
    9.7637652e+04
    9.7841344e+04
    9.8045691e+04
    9.8250837e+04
    9.8456711e+04
    9.8663464e+04
    9.8870879e+04
    9.9078952e+04
    9.9287834e+04
    9.9497452e+04
    9.9707960e+04
    9.9919134e+04
    1.0013098e+05
    1.0034379e+05
    1.0055719e+05
    1.0077135e+05
    1.0098633e+05
    1.0120213e+05
    1.0141876e+05
    1.0163599e+05
    1.0185399e+05
    1.0207281e+05
    1.0229247e+05
    1.0251296e+05
    1.0273407e+05
    1.0295609e+05
    1.0317881e+05
    1.0340236e+05
    1.0362677e+05
    1.0385179e+05
    1.0407774e+05
    1.0430438e+05
    1.0453189e+05
    1.0476024e+05
    1.0498922e+05
    1.0521914e+05
    1.0544992e+05
    1.0568141e+05
    1.0591376e+05
    1.0614674e+05
    1.0638067e+05
    1.0661548e+05
    1.0685100e+05
    1.0708739e+05
    1.0732442e+05
    1.0756257e+05
    1.0780129e+05
    1.0804104e+05
    1.0828152e+05
    1.0852265e+05
    1.0876475e+05
    1.0900774e+05
    1.0925162e+05
    1.0949623e+05
    1.0974150e+05
    1.0998791e+05
    1.1023506e+05
    1.1048296e+05
    1.1073176e+05
    1.1098137e+05
    1.1123182e+05
    1.1148318e+05
    1.1173545e+05
    1.1198848e+05
    1.1224233e+05
    1.1249703e+05
    1.1275264e+05
    1.1300918e+05
    1.1326649e+05
    1.1352462e+05
    1.1378378e+05
    1.1404370e+05
    1.1430456e+05
    1.1456618e+05
    1.1482865e+05
    1.1509215e+05
    1.1535643e+05
    1.1562165e+05
    1.1588765e+05
    1.1615460e+05
    1.1642240e+05
    1.1669108e+05
    1.1696072e+05
    1.1723130e+05
    1.1750269e+05
    1.1777493e+05
    1.1804807e+05
    1.1832217e+05
    1.1859723e+05
    1.1887310e+05
    1.1914984e+05
    1.1942748e+05
    1.1970609e+05
    1.1998568e+05
    1.2026608e+05
    1.2054737e+05
    1.2082973e+05
    1.2111291e+05
    1.2139691e+05
    1.2168207e+05
    1.2196795e+05
    1.2225476e+05
    1.2254273e+05
    1.2283135e+05
    1.2312115e+05
    1.2341168e+05
    1.2370332e+05
    1.2399579e+05
    1.2428926e+05
    1.2458359e+05
    1.2487899e+05
    1.2517516e+05
    1.2547253e+05
    1.2577075e+05
    1.2606981e+05
    1.2636980e+05
    1.2667091e+05
    1.2697306e+05
    1.2727606e+05
    1.2757993e+05
    1.2788490e+05
    1.2819083e+05
    1.2849764e+05
    1.2880549e+05
    1.2911438e+05
    1.2942404e+05
    1.2973485e+05
    1.3004672e+05
    1.3035946e+05
    1.3067326e+05
    1.3098784e+05
    1.3130358e+05
    1.3162039e+05
    1.3193809e+05
    1.3225686e+05
    1.3257659e+05
    1.3289732e+05
    1.3321913e+05
    1.3354184e+05
    1.3386562e+05
    1.3419021e+05
    1.3451616e+05
    1.3484284e+05
    1.3517080e+05
    1.3549966e+05
    1.3582951e+05
    1.3616039e+05
    1.3649236e+05
    1.3682526e+05
    1.3715926e+05
    1.3749425e+05
    1.3783029e+05
    1.3816743e+05
    1.3850569e+05
    1.3884489e+05
    1.3918509e+05
    1.3952633e+05
    1.3986871e+05
    1.4021221e+05
    1.4055665e+05
    1.4090211e+05
    1.4124882e+05
    1.4159648e+05
    1.4194509e+05
    1.4229503e+05
    1.4264581e+05
    1.4299767e+05
    1.4335067e+05
    1.4370483e+05
    1.4406014e+05
    1.4441630e+05
    1.4477356e+05
    1.4513197e+05
    1.4549154e+05
    1.4585228e+05
    1.4621388e+05
    1.4657659e+05
    1.4694065e+05
    1.4730571e+05
    1.4767175e+05
    1.4803886e+05
    1.4840726e+05
    1.4877686e+05
    1.4914745e+05
    1.4951905e+05
    1.4989171e+05
    1.5026569e+05
    1.5064088e+05
    1.5101708e+05
    1.5139445e+05
    1.5177355e+05
    1.5215386e+05
    1.5253566e+05
    1.5291899e+05
    1.5330388e+05
    1.5369013e+05
    1.5407780e+05
    1.5446717e+05
    1.5485790e+05
    1.5525020e+05
    1.5564387e+05
    1.5603899e+05
    1.5643582e+05
    1.5683404e+05
    1.5723384e+05
    1.5763503e+05
    1.5803788e+05
    1.5844206e+05
    1.5884805e+05
    1.5925544e+05
    1.5966424e+05
    1.6007452e+05
    1.6048655e+05
    1.6090000e+05
    1.6131507e+05
    1.6173177e+05
    1.6214977e+05
    1.6256953e+05
    1.6299074e+05
    1.6341378e+05
    1.6383808e+05
    1.6426388e+05
    1.6469148e+05
    1.6512073e+05
    1.6555144e+05
    1.6598383e+05
    1.6641753e+05
    1.6685305e+05
    1.6729025e+05
    1.6772892e+05
    1.6816928e+05
    1.6861098e+05
    1.6905452e+05
    1.6949975e+05
    1.6994649e+05
    1.7039493e+05
    1.7084472e+05
    1.7129637e+05
    1.7174974e+05
    1.7220463e+05
    1.7266124e+05
    1.7311922e+05
    1.7357929e+05
    1.7404068e+05
    1.7450372e+05
    1.7496829e+05
    1.7543596e+05
    1.7590382e+05
    1.7637344e+05
    1.7684461e+05
    1.7731754e+05
    1.7779224e+05
    1.7827011e+05
    1.7874815e+05
    1.7922797e+05
    1.7970936e+05
    1.8019233e+05
    1.8067873e+05
    1.8116530e+05
    1.8165367e+05
    1.8214363e+05
    1.8263540e+05
    1.8312877e+05
    1.8362562e+05
    1.8412242e+05
    1.8462105e+05
    1.8512151e+05
    1.8562358e+05
    1.8612919e+05
    1.8663496e+05
    1.8714236e+05
    1.8765160e+05
    1.8816249e+05
    1.8867523e+05
    1.8919158e+05
    1.8970785e+05
    1.9022599e+05
    1.9074579e+05
    1.9126747e+05
    1.9179104e+05
    1.9231806e+05
    1.9284520e+05
    1.9337402e+05
    1.9390475e+05
    1.9443738e+05
    1.9497351e+05
    1.9550976e+05
    1.9604770e+05
    1.9658758e+05
    1.9712938e+05
    1.9767289e+05
    1.9822019e+05
    1.9876737e+05
    1.9931673e+05
    1.9986758e+05
    2.0042040e+05
    2.0097705e+05
    2.0153380e+05
    2.0209230e+05
    2.0265254e+05
    2.0321499e+05
    2.0377920e+05
    2.0434708e+05
    2.0491505e+05
    2.0548501e+05
    2.0605676e+05
    2.0663051e+05
    2.0720798e+05
    2.0778577e+05
    2.0836512e+05
    2.0894649e+05
    2.0952989e+05
    2.1011533e+05
    2.1070456e+05
    2.1129386e+05
    2.1188497e+05
    2.1247814e+05
    2.1307313e+05
    2.1367221e+05
    2.1427134e+05
    2.1487231e+05
    2.1547536e+05
    2.1608025e+05
    2.1668723e+05
    2.1729836e+05
    2.1790930e+05
    2.1852234e+05
    2.1913725e+05
    2.1975427e+05
    2.2037341e+05
    2.2099653e+05
    2.2161968e+05
    2.2224472e+05
    2.2287190e+05
    2.2350122e+05
    2.2413457e+05
    2.2476795e+05