FoamFile
{
    version     2.0;
    format      ascii;
    class       scalarAverageField;
    object      k;
    note        "From experimental data, scaled for Ubulk = 50 m/s";
}

// * * * * * * * * * * * * * * * * * * * * * * * * * * * * * * * * * * * * * //

// Average
0

(
    // min z
    3.7744205e+01
    3.7740867e+01
    3.7737654e+01
    3.7734505e+01
    3.7731544e+01
    3.7728647e+01
    3.7725939e+01
    3.7723293e+01
    3.7720773e+01
    3.7718380e+01
    3.7716112e+01
    3.7713908e+01
    3.7711892e+01
    3.7709940e+01
    3.7708113e+01
    3.7706412e+01
    3.7704837e+01
    3.7703389e+01
    3.7702066e+01
    3.7700806e+01
    3.7699735e+01
    3.7698728e+01
    3.7697846e+01
    3.7697090e+01
    3.7696460e+01
    3.7695893e+01
    3.7695515e+01
    3.7695200e+01
    3.7695011e+01
    3.7694948e+01
    3.7695011e+01
    3.7695137e+01
    3.7695452e+01
    3.7695830e+01
    3.7696334e+01
    3.7696964e+01
    3.7697720e+01
    3.7698539e+01
    3.7699546e+01
    3.7700617e+01
    3.7701814e+01
    3.7703137e+01
    3.7704523e+01
    3.7706097e+01
    3.7707735e+01
    3.7709499e+01
    3.7711388e+01
    3.7713404e+01
    3.7715482e+01
    3.7717687e+01
    3.7720018e+01
    3.7722474e+01
    3.7725057e+01
    3.7727765e+01
    3.7730537e+01
    3.7733434e+01
    3.7736458e+01
    3.7739607e+01
    3.7742819e+01
    3.7746158e+01
    3.7749622e+01
    3.7753212e+01
    3.7756929e+01
    3.7760708e+01
    3.7764613e+01
    3.7768644e+01
    3.7772802e+01
    3.7777085e+01
    3.7781431e+01
    3.7785903e+01
    3.7790501e+01
    3.7795163e+01
    3.7800013e+01
    3.7804926e+01
    3.7809965e+01
    3.7815130e+01
    3.7820358e+01
    3.7825712e+01
    3.7831192e+01
    3.7836798e+01
    3.7842530e+01
    3.7848325e+01
    3.7854245e+01
    3.7860292e+01
    3.7866402e+01
    3.7872701e+01
    3.7879063e+01
    3.7885551e+01
    3.7892101e+01
    3.7898778e+01
    3.7905644e+01
    3.7912509e+01
    3.7919564e+01
    3.7926682e+01
    3.7933925e+01
    3.7941295e+01
    3.7948791e+01
    3.7956349e+01
    3.7964034e+01
    3.7971844e+01
    3.7979718e+01
    3.7987780e+01
    3.7995906e+01
    3.8004094e+01
    3.8012472e+01
    3.8020912e+01
    3.8029478e+01
    3.8038171e+01
    3.8046926e+01
    3.8055808e+01
    3.8064815e+01
    3.8073885e+01
    3.8083144e+01
    3.8092467e+01
    3.8101852e+01
    3.8111426e+01
    3.8121063e+01
    3.8130826e+01
    3.8140716e+01
    3.8150668e+01
    3.8160746e+01
    3.8170950e+01
    3.8181217e+01
    3.8191673e+01
    3.8202192e+01
    3.8212774e+01
    3.8223545e+01
    3.8234379e+01
    3.8245276e+01
    3.8256362e+01
    3.8267511e+01
    3.8278786e+01
    3.8290186e+01
    3.8301650e+01
    3.8313240e+01
    3.8324956e+01
    3.8336735e+01
    3.8348639e+01
    3.8360670e+01
    3.8372827e+01
    3.8385047e+01
    3.8397392e+01
    3.8409801e+01
    3.8422399e+01
    3.8435059e+01
    3.8447783e+01
    3.8460695e+01
    3.8473671e+01
    3.8486772e+01
    3.8499937e+01
    3.8513291e+01
    3.8526644e+01
    3.8540186e+01
    3.8553792e+01
    3.8567523e+01
    3.8581381e+01
    3.8595301e+01
    3.8609347e+01
    3.8623520e+01
    3.8637755e+01
    3.8652116e+01
    3.8666604e+01
    3.8681154e+01
    3.8695893e+01
    3.8710632e+01
    3.8725561e+01
    3.8740552e+01
    3.8755669e+01
    3.8770849e+01
    3.8786218e+01
    3.8801587e+01
    3.8817145e+01
    3.8832766e+01
    3.8848513e+01
    3.8864386e+01
    3.8880322e+01
    3.8896384e+01
    3.8912509e+01
    3.8928823e+01
    3.8945200e+01
    3.8961640e+01
    3.8978206e+01
    3.8994898e+01
    3.9011716e+01
    3.9028597e+01
    3.9045603e+01
    3.9062736e+01
    3.9079932e+01
    3.9097254e+01
    3.9114701e+01
    3.9132212e+01
    3.9149849e+01
    3.9167611e+01
    3.9185437e+01
    3.9203389e+01
    3.9221403e+01
    3.9239607e+01
    3.9257811e+01
    3.9276203e+01
    3.9294659e+01
    3.9313240e+01
    3.9331948e+01
    3.9350718e+01
    3.9369615e+01
    3.9388574e+01
    3.9407659e+01
    3.9426871e+01
    3.9446208e+01
    3.9465608e+01
    3.9485135e+01
    3.9504724e+01
    3.9524439e+01
    3.9544281e+01
    3.9564185e+01
    3.9584215e+01
    3.9604371e+01
    3.9624654e+01
    3.9644999e+01
    3.9665407e+01
    3.9686004e+01
    3.9706664e+01
    3.9727387e+01
    3.9748236e+01
    3.9769211e+01
    3.9790312e+01
    3.9811476e+01
    3.9832766e+01
    3.9854119e+01
    3.9875661e+01
    3.9897203e+01
    3.9918934e+01
    3.9940728e+01
    3.9962648e+01
    3.9984631e+01
    4.0006740e+01
    4.0028975e+01
    4.0051272e+01
    4.0073696e+01
    4.0096183e+01
    4.0118859e+01
    4.0141534e+01
    4.0164399e+01
    4.0187327e+01
    4.0210380e+01
    4.0233497e+01
    4.0256740e+01
    4.0280108e+01
    4.0303540e+01
    4.0327098e+01
    4.0350781e+01
    4.0374528e+01
    4.0398400e+01
    4.0422336e+01
    4.0446460e+01
    4.0470585e+01
    4.0494898e+01
    4.0519274e+01
    4.0543777e+01
    4.0568342e+01
    4.0593034e+01
    4.0617851e+01
    4.0642731e+01
    4.0667737e+01
    4.0692807e+01
    4.0718002e+01
    4.0743323e+01
    4.0768707e+01
    4.0794218e+01
    4.0819854e+01
    4.0845553e+01
    4.0871378e+01
    4.0897329e+01
    4.0923343e+01
    4.0949483e+01
    4.0975687e+01
    4.1002016e+01
    4.1028471e+01
    4.1054989e+01
    4.1081633e+01
    4.1108403e+01
    4.1135236e+01
    4.1162195e+01
    4.1189279e+01
    4.1216427e+01
    4.1243638e+01
    4.1271038e+01
    4.1298501e+01
    4.1326027e+01
    4.1353741e+01
    4.1381456e+01
    4.1409360e+01
    4.1437327e+01
    4.1465420e+01
    4.1493575e+01
    4.1521857e+01
    4.1550265e+01
    4.1578735e+01
    4.1607332e+01
    4.1636054e+01
    4.1664840e+01
    4.1693689e+01
    4.1722726e+01
    4.1751827e+01
    4.1780990e+01
    4.1810343e+01
    4.1839758e+01
    4.1869237e+01
    4.1898841e+01
    4.1928571e+01
    4.1958365e+01
    4.1988284e+01
    4.2018330e+01
    4.2048438e+01
    4.2078672e+01
    4.2108970e+01
    4.2139393e+01
    4.2169942e+01
    4.2200617e+01
    4.2231356e+01
    4.2262157e+01
    4.2293084e+01
    4.2324137e+01
    4.2355316e+01
    4.2386558e+01
    4.2417863e+01
    4.2449358e+01
    4.2480915e+01
    4.2512535e+01
    4.2544281e+01
    4.2576153e+01
    4.2608151e+01
    4.2640212e+01
    4.2672336e+01
    4.2704586e+01
    4.2736961e+01
    4.2769463e+01
    4.2802028e+01
    4.2834719e+01
    4.2867473e+01
    4.2900353e+01
    4.2933359e+01
    4.2966427e+01
    4.2999622e+01
    4.3032880e+01
    4.3066264e+01
    4.3099773e+01
    4.3133346e+01
    4.3167045e+01
    4.3200869e+01
    4.3234757e+01
    4.3268770e+01
    4.3302847e+01
    4.3337050e+01
    4.3371378e+01
    4.3405770e+01
    4.3440287e+01
    4.3474868e+01
    4.3509637e+01
    4.3544407e+01
    4.3579365e+01
    4.3614386e+01
    4.3649471e+01
    4.3684681e+01
    4.3720018e+01
    4.3755480e+01
    4.3791005e+01
    4.3826594e+01
    4.3862371e+01
    4.3898211e+01
    4.3934114e+01
    4.3970144e+01
    4.4006299e+01
    4.4042517e+01
    4.4078861e+01
    4.4115331e+01
    4.4151864e+01
    4.4188524e+01
    4.4225246e+01
    4.4262094e+01
    4.4299068e+01
    4.4336105e+01
    4.4373268e+01
    4.4410557e+01
    4.4447909e+01
    4.4485387e+01
    4.4522928e+01
    4.4560595e+01
    4.4598388e+01
    4.4636243e+01
    4.4674225e+01
    4.4712270e+01
    4.4750441e+01
    4.4788738e+01
    4.4827098e+01
    4.4865583e+01
    4.4904195e+01
    4.4942870e+01
    4.4981670e+01
    4.5020534e+01
    4.5059524e+01
    4.5098639e+01
    4.5137818e+01
    4.5177123e+01
    4.5216490e+01
    4.5255984e+01
    4.5295603e+01
    4.5335286e+01
    4.5375094e+01
    4.5415029e+01
    4.5455026e+01
    4.5495087e+01
    4.5535336e+01
    4.5575649e+01
    4.5616024e+01
    4.5656589e+01
    4.5697153e+01
    4.5737906e+01
    4.5778723e+01
    4.5819665e+01
    4.5860670e+01
    4.5901801e+01
    4.5942996e+01
    4.5984379e+01
    4.6025762e+01
    4.6067334e+01
    4.6108970e+01
    4.6150668e+01
    4.6192492e+01
    4.6234442e+01
    4.6276518e+01
    4.6318657e+01
    4.6360859e+01
    4.6403250e+01
    4.6445704e+01
    4.6488221e+01
    4.6530864e+01
    4.6573633e+01
    4.6616465e+01
    4.6659423e+01
    4.6702507e+01
    4.6745654e+01
    4.6788927e+01
    4.6832263e+01
    4.6875724e+01
    4.6919312e+01
    4.6962963e+01
    4.7006740e+01
    4.7050642e+01
    4.7094608e+01
    4.7138700e+01
    4.7182855e+01
    4.7227135e+01
    4.7271479e+01
    4.7316012e+01
    4.7360544e+01
    4.7405266e+01
    4.7450050e+01
    4.7494961e+01
    4.7539934e+01
    4.7585034e+01
    4.7630197e+01
    4.7675485e+01
    4.7720899e+01
    4.7766377e+01
    4.7811980e+01
    4.7857710e+01
    4.7903502e+01
    4.7949421e+01
    4.7995402e+01
    4.8041509e+01
    4.8087743e+01
    4.8134039e+01
    4.8180461e+01
    4.8227009e+01
    4.8273621e+01
    4.8320295e+01
    4.8367158e+01
    4.8414084e+01
    4.8461073e+01
    4.8508188e+01
    4.8555430e+01
    4.8602797e+01
    4.8650227e+01
    4.8697720e+01
    4.8745339e+01
    4.8793084e+01
    4.8840955e+01
    4.8888889e+01
    4.8936886e+01
    4.8985072e+01
    4.9033321e+01
    4.9081633e+01
    4.9130071e+01
    4.9178634e+01
    4.9227324e+01
    4.9276077e+01
    4.9324893e+01
    4.9373835e+01
    4.9422902e+01
    4.9472096e+01
    4.9521353e+01
    4.9570673e+01
    4.9620181e+01
    4.9669753e+01
    4.9719388e+01
    4.9769148e+01
    4.9819035e+01
    4.9868985e+01
    4.9919060e+01
    4.9969262e+01
    5.0019526e+01
    5.0069917e+01
    5.0120370e+01
    5.0170950e+01
    5.0221655e+01
    5.0272424e+01
    5.0323318e+01
    5.0374276e+01
    5.0425422e+01
    5.0476568e+01
    5.0527904e+01
    5.0579302e+01
    5.0630763e+01
    5.0682351e+01
    5.0734064e+01
    5.0785840e+01
    5.0837743e+01
    5.0889771e+01
    5.0941862e+01
    5.0994079e+01
    5.1046359e+01
    5.1098828e+01
    5.1151298e+01
    5.1203893e+01
    5.1256614e+01
    5.1309461e+01
    5.1362371e+01
    5.1415407e+01
    5.1468506e+01
    5.1521731e+01
    5.1575082e+01
    5.1628496e+01
    5.1682036e+01
    5.1735639e+01
    5.1789368e+01
    5.1843222e+01
    5.1897140e+01
    5.1951184e+01
    5.2005291e+01
    5.2059524e+01
    5.2113883e+01
    5.2168304e+01
    5.2222852e+01
    5.2277463e+01
    5.2332263e+01
    5.2387062e+01
    5.2442051e+01
    5.2497103e+01
    5.2552217e+01
    5.2607458e+01
    5.2662824e+01
    5.2718254e+01
    5.2773810e+01
    5.2829491e+01
    5.2885236e+01
    5.2941106e+01
    5.2997103e+01
    5.3053162e+01
    5.3109284e+01
    5.3165533e+01
    5.3221907e+01
    5.3278408e+01
    5.3334971e+01
    5.3391660e+01
    5.3448413e+01
    5.3505291e+01
    5.3562232e+01
    5.3619300e+01
    5.3676493e+01
    5.3733749e+01
    5.3791131e+01
    5.3848639e+01
    5.3906211e+01
    5.3963908e+01
    5.4021668e+01
    5.4079554e+01
    5.4137566e+01
    5.4195641e+01
    5.4253842e+01
    5.4312106e+01
    5.4370496e+01
    5.4429012e+01
    5.4487591e+01
    5.4546296e+01
    5.4605064e+01
    5.4663958e+01
    5.4722978e+01
    5.4782061e+01
    5.4841270e+01
    5.4900542e+01
    5.4959940e+01
    5.5019463e+01
    5.5079050e+01
    5.5138763e+01
    5.5198539e+01
    5.5258503e+01
    5.5318468e+01
    5.5378559e+01
    5.5438776e+01
    5.5499118e+01
    5.5559524e+01
    5.5619992e+01
    5.5680650e+01
    5.5741371e+01
    5.5802154e+01
    5.5863064e+01
    5.5924099e+01
    5.5985198e+01
    5.6046422e+01
    5.6107710e+01
    5.6169186e+01
    5.6230663e+01
    5.6292265e+01
    5.6353993e+01
    5.6415848e+01
    5.6477765e+01
    5.6539809e+01
    5.6601915e+01
    5.6664147e+01
    5.6726442e+01
    5.6788864e+01
    5.6851411e+01
    5.6914021e+01
    5.6976757e+01
    5.7039557e+01
    5.7102482e+01
    5.7165533e+01
    5.7228647e+01
    5.7291887e+01
    5.7355190e+01
    5.7418619e+01
    5.7482174e+01
    5.7545792e+01
    5.7609536e+01
    5.7673343e+01
    5.7737276e+01
    5.7801335e+01
    5.7865457e+01
    5.7929705e+01
    5.7994016e+01
    5.8058453e+01
    5.8123016e+01
    5.8187642e+01
    5.8252394e+01
    5.8317208e+01
    5.8382149e+01
    5.8447153e+01
    5.8512283e+01
    5.8577538e+01
    5.8642857e+01
    5.8708302e+01
    5.8773810e+01
    5.8839443e+01
    5.8905203e+01
    5.8971025e+01
    5.9036974e+01
    5.9102986e+01
    5.9169123e+01
    5.9235387e+01
    5.9301713e+01
    5.9368166e+01
    5.9434681e+01
    5.9501323e+01
    5.9568027e+01
    5.9634858e+01
    5.9701814e+01
    5.9768833e+01
    5.9835979e+01
    5.9903187e+01
    5.9970522e+01
    6.0037982e+01
    6.0105505e+01
    6.0173091e+01
    6.0240867e+01
    6.0308642e+01
    6.0376606e+01
    6.0444633e+01
    6.0512724e+01
    6.0581003e+01
    6.0649282e+01
    6.0717750e+01
    6.0786218e+01
    6.0854875e+01
    6.0923595e+01
    6.0992441e+01
    6.1061350e+01
    6.1130322e+01
    6.1199483e+01
    6.1268707e+01
    6.1337994e+01
    6.1407407e+01
    6.1476946e+01
    6.1546548e+01
    6.1616276e+01
    6.1686067e+01
    6.1755984e+01
    6.1825964e+01
    6.1896070e+01
    6.1966301e+01
    6.2036596e+01
    6.2107017e+01
    6.2177501e+01
    6.2248110e+01
    6.2318846e+01
    6.2389645e+01
    6.2460506e+01
    6.2531494e+01
    6.2602608e+01
    6.2673784e+01
    6.2745087e+01
    6.2816453e+01
    6.2887944e+01
    6.2959562e+01
    6.3030990e+01
    6.3102797e+01
    6.3174603e+01
    6.3247040e+01
    6.3318846e+01
    6.3391282e+01
    6.3463719e+01
    6.3535525e+01
    6.3607962e+01
    6.3681028e+01
    6.3753464e+01
    6.3826531e+01
    6.3898967e+01
    6.3972033e+01
    6.4045100e+01
    6.4118166e+01
    6.4191232e+01
    6.4264928e+01
    6.4338624e+01
    6.4411691e+01
    6.4485387e+01
    6.4559083e+01
    6.4633409e+01
    6.4707105e+01
    6.4780801e+01
    6.4855127e+01
    6.4929453e+01
    6.5003779e+01
    6.5078105e+01
    6.5152431e+01
    6.5227387e+01
    6.5301713e+01
    6.5376669e+01
    6.5451625e+01
    6.5526581e+01
    6.5601537e+01
    6.5677123e+01
    6.5752079e+01
    6.5827664e+01
    6.5903250e+01
    6.5978836e+01
    6.6054422e+01
    6.6130008e+01
    6.6206223e+01
    6.6281809e+01
    6.6358025e+01
    6.6434240e+01
    6.6510456e+01
    6.6586672e+01
    6.6663517e+01
    6.6739733e+01
    6.6816578e+01
    6.6893424e+01
    6.6970270e+01
    6.7047115e+01
    6.7123961e+01
    6.7201436e+01
    6.7278282e+01
    6.7355757e+01
    6.7433233e+01
    6.7510708e+01
    6.7588183e+01
    6.7666289e+01
    6.7743764e+01
    6.7821869e+01
    6.7899975e+01
    6.7978080e+01
    6.8056185e+01
    6.8134291e+01
    6.8212396e+01
    6.8291131e+01
    6.8369866e+01
    6.8448602e+01
    6.8527337e+01
    6.8606072e+01
    6.8684807e+01
    6.8764172e+01
    6.8842908e+01
    6.8922273e+01
    6.9001638e+01
    6.9081003e+01
    6.9160368e+01
    6.9240363e+01
    6.9319728e+01
    6.9399723e+01
    6.9479718e+01
    6.9559713e+01
    6.9639708e+01
    6.9719703e+01
    6.9800328e+01
    6.9880322e+01
    6.9960947e+01
    7.0041572e+01
    7.0122197e+01
    7.0202822e+01
    7.0283447e+01
    7.0364701e+01
    7.0445326e+01
    7.0526581e+01
    7.0607836e+01
    7.0689090e+01
    7.0770345e+01
    7.0852230e+01
    7.0933485e+01
    7.1015369e+01
    7.1097254e+01
    7.1179138e+01
    7.1261023e+01
    7.1342908e+01
    7.1425422e+01
    7.1507307e+01
    7.1589821e+01
    7.1672336e+01
    7.1754850e+01
    7.1837365e+01
    7.1919879e+01
    7.2003023e+01
    7.2085538e+01
    7.2168682e+01
    7.2251827e+01
    7.2334971e+01
    7.2418115e+01
    7.2501260e+01
    7.2585034e+01
    7.2668178e+01
    7.2751953e+01
    7.2835727e+01
    7.2919501e+01
    7.3003275e+01
    7.3087680e+01
    7.3171454e+01
    7.3255858e+01
    7.3340262e+01
    7.3424036e+01
    7.3509070e+01
    7.3593474e+01
    7.3677879e+01
    7.3762913e+01
    7.3847317e+01
    7.3932351e+01
    7.4017385e+01
    7.4102419e+01
    7.4187453e+01
    7.4273117e+01
    7.4358151e+01
    7.4443815e+01
    7.4529478e+01
    7.4615142e+01
    7.4700806e+01
    7.4786470e+01
    7.4872134e+01
    7.4958428e+01
    7.5044722e+01
    7.5130385e+01
    7.5216679e+01
    7.5302973e+01
    7.5389897e+01
    7.5476190e+01
    7.5563114e+01
    7.5649408e+01
    7.5736332e+01
    7.5823255e+01
    7.5910179e+01
    7.5997103e+01
    7.6084656e+01
    7.6171580e+01
    7.6259133e+01
    7.6346687e+01
    7.6434240e+01
    7.6521794e+01
    7.6609347e+01
    7.6696901e+01
    7.6785084e+01
    7.6873268e+01
    7.6960821e+01
    7.7049005e+01
    7.7137188e+01
    7.7226002e+01
    7.7314185e+01
    7.7402368e+01
    7.7491182e+01
    7.7579995e+01
    7.7668808e+01
    7.7757622e+01
    7.7846435e+01
    7.7935248e+01
    7.8024691e+01
    7.8113505e+01
    7.8202948e+01
    7.8292391e+01
    7.8381834e+01
    7.8471277e+01
    7.8560721e+01
    7.8650794e+01
    7.8740237e+01
    7.8830310e+01
    7.8920383e+01
    7.9010456e+01
    7.9100529e+01
    7.9190602e+01
    7.9281305e+01
    7.9371378e+01
    7.9462081e+01
    7.9552784e+01
    7.9643487e+01
    7.9734190e+01
    7.9824893e+01
    7.9915596e+01
    8.0006929e+01
    8.0097632e+01
    8.0188964e+01
    8.0280297e+01
    8.0371630e+01
    8.0462963e+01
    8.0554926e+01
    8.0646259e+01
    8.0738221e+01
    8.0829554e+01
    8.0921517e+01
    8.1013479e+01
    8.1105442e+01
    8.1197405e+01
    8.1289997e+01
    8.1381960e+01
    8.1474553e+01
    8.1567145e+01
    8.1659738e+01
    8.1752331e+01
    8.1844923e+01
    8.1937516e+01
    8.2030738e+01
    8.2123331e+01
    8.2216553e+01
    8.2309776e+01
    8.2402998e+01
    8.2496221e+01
    8.2589443e+01
    8.2682666e+01
    8.2776518e+01
    8.2870370e+01
    8.2963593e+01
    8.3057445e+01
    8.3151298e+01
    8.3245150e+01
    8.3339632e+01
    8.3433485e+01
    8.3527967e+01
    8.3621819e+01
    8.3716301e+01
    8.3810784e+01
    8.3905266e+01
    8.3999748e+01
    8.4094860e+01
    8.4189342e+01
    8.4284455e+01
    8.4378937e+01
    8.4474049e+01
    8.4569161e+01
    8.4664273e+01
    8.4759385e+01
    8.4855127e+01
    8.4950239e+01
    8.5045981e+01
    8.5141093e+01
    8.5236835e+01
    8.5332577e+01
    8.5428319e+01
    8.5524691e+01
    8.5620433e+01
    8.5716175e+01
    8.5812547e+01
    8.5908919e+01
    8.6005291e+01
    8.6101663e+01
    8.6198035e+01
    8.6294407e+01
    8.6294407e+01
    // max z
    3.7744205e+01
    3.7740867e+01
    3.7737654e+01
    3.7734505e+01
    3.7731544e+01
    3.7728647e+01
    3.7725939e+01
    3.7723293e+01
    3.7720773e+01
    3.7718380e+01
    3.7716112e+01
    3.7713908e+01
    3.7711892e+01
    3.7709940e+01
    3.7708113e+01
    3.7706412e+01
    3.7704837e+01
    3.7703389e+01
    3.7702066e+01
    3.7700806e+01
    3.7699735e+01
    3.7698728e+01
    3.7697846e+01
    3.7697090e+01
    3.7696460e+01
    3.7695893e+01
    3.7695515e+01
    3.7695200e+01
    3.7695011e+01
    3.7694948e+01
    3.7695011e+01
    3.7695137e+01
    3.7695452e+01
    3.7695830e+01
    3.7696334e+01
    3.7696964e+01
    3.7697720e+01
    3.7698539e+01
    3.7699546e+01
    3.7700617e+01
    3.7701814e+01
    3.7703137e+01
    3.7704523e+01
    3.7706097e+01
    3.7707735e+01
    3.7709499e+01
    3.7711388e+01
    3.7713404e+01
    3.7715482e+01
    3.7717687e+01
    3.7720018e+01
    3.7722474e+01
    3.7725057e+01
    3.7727765e+01
    3.7730537e+01
    3.7733434e+01
    3.7736458e+01
    3.7739607e+01
    3.7742819e+01
    3.7746158e+01
    3.7749622e+01
    3.7753212e+01
    3.7756929e+01
    3.7760708e+01
    3.7764613e+01
    3.7768644e+01
    3.7772802e+01
    3.7777085e+01
    3.7781431e+01
    3.7785903e+01
    3.7790501e+01
    3.7795163e+01
    3.7800013e+01
    3.7804926e+01
    3.7809965e+01
    3.7815130e+01
    3.7820358e+01
    3.7825712e+01
    3.7831192e+01
    3.7836798e+01
    3.7842530e+01
    3.7848325e+01
    3.7854245e+01
    3.7860292e+01
    3.7866402e+01
    3.7872701e+01
    3.7879063e+01
    3.7885551e+01
    3.7892101e+01
    3.7898778e+01
    3.7905644e+01
    3.7912509e+01
    3.7919564e+01
    3.7926682e+01
    3.7933925e+01
    3.7941295e+01
    3.7948791e+01
    3.7956349e+01
    3.7964034e+01
    3.7971844e+01
    3.7979718e+01
    3.7987780e+01
    3.7995906e+01
    3.8004094e+01
    3.8012472e+01
    3.8020912e+01
    3.8029478e+01
    3.8038171e+01
    3.8046926e+01
    3.8055808e+01
    3.8064815e+01
    3.8073885e+01
    3.8083144e+01
    3.8092467e+01
    3.8101852e+01
    3.8111426e+01
    3.8121063e+01
    3.8130826e+01
    3.8140716e+01
    3.8150668e+01
    3.8160746e+01
    3.8170950e+01
    3.8181217e+01
    3.8191673e+01
    3.8202192e+01
    3.8212774e+01
    3.8223545e+01
    3.8234379e+01
    3.8245276e+01
    3.8256362e+01
    3.8267511e+01
    3.8278786e+01
    3.8290186e+01
    3.8301650e+01
    3.8313240e+01
    3.8324956e+01
    3.8336735e+01
    3.8348639e+01
    3.8360670e+01
    3.8372827e+01
    3.8385047e+01
    3.8397392e+01
    3.8409801e+01
    3.8422399e+01
    3.8435059e+01
    3.8447783e+01
    3.8460695e+01
    3.8473671e+01
    3.8486772e+01
    3.8499937e+01
    3.8513291e+01
    3.8526644e+01
    3.8540186e+01
    3.8553792e+01
    3.8567523e+01
    3.8581381e+01
    3.8595301e+01
    3.8609347e+01
    3.8623520e+01
    3.8637755e+01
    3.8652116e+01
    3.8666604e+01
    3.8681154e+01
    3.8695893e+01
    3.8710632e+01
    3.8725561e+01
    3.8740552e+01
    3.8755669e+01
    3.8770849e+01
    3.8786218e+01
    3.8801587e+01
    3.8817145e+01
    3.8832766e+01
    3.8848513e+01
    3.8864386e+01
    3.8880322e+01
    3.8896384e+01
    3.8912509e+01
    3.8928823e+01
    3.8945200e+01
    3.8961640e+01
    3.8978206e+01
    3.8994898e+01
    3.9011716e+01
    3.9028597e+01
    3.9045603e+01
    3.9062736e+01
    3.9079932e+01
    3.9097254e+01
    3.9114701e+01
    3.9132212e+01
    3.9149849e+01
    3.9167611e+01
    3.9185437e+01
    3.9203389e+01
    3.9221403e+01
    3.9239607e+01
    3.9257811e+01
    3.9276203e+01
    3.9294659e+01
    3.9313240e+01
    3.9331948e+01
    3.9350718e+01
    3.9369615e+01
    3.9388574e+01
    3.9407659e+01
    3.9426871e+01
    3.9446208e+01
    3.9465608e+01
    3.9485135e+01
    3.9504724e+01
    3.9524439e+01
    3.9544281e+01
    3.9564185e+01
    3.9584215e+01
    3.9604371e+01
    3.9624654e+01
    3.9644999e+01
    3.9665407e+01
    3.9686004e+01
    3.9706664e+01
    3.9727387e+01
    3.9748236e+01
    3.9769211e+01
    3.9790312e+01
    3.9811476e+01
    3.9832766e+01
    3.9854119e+01
    3.9875661e+01
    3.9897203e+01
    3.9918934e+01
    3.9940728e+01
    3.9962648e+01
    3.9984631e+01
    4.0006740e+01
    4.0028975e+01
    4.0051272e+01
    4.0073696e+01
    4.0096183e+01
    4.0118859e+01
    4.0141534e+01
    4.0164399e+01
    4.0187327e+01
    4.0210380e+01
    4.0233497e+01
    4.0256740e+01
    4.0280108e+01
    4.0303540e+01
    4.0327098e+01
    4.0350781e+01
    4.0374528e+01
    4.0398400e+01
    4.0422336e+01
    4.0446460e+01
    4.0470585e+01
    4.0494898e+01
    4.0519274e+01
    4.0543777e+01
    4.0568342e+01
    4.0593034e+01
    4.0617851e+01
    4.0642731e+01
    4.0667737e+01
    4.0692807e+01
    4.0718002e+01
    4.0743323e+01
    4.0768707e+01
    4.0794218e+01
    4.0819854e+01
    4.0845553e+01
    4.0871378e+01
    4.0897329e+01
    4.0923343e+01
    4.0949483e+01
    4.0975687e+01
    4.1002016e+01
    4.1028471e+01
    4.1054989e+01
    4.1081633e+01
    4.1108403e+01
    4.1135236e+01
    4.1162195e+01
    4.1189279e+01
    4.1216427e+01
    4.1243638e+01
    4.1271038e+01
    4.1298501e+01
    4.1326027e+01
    4.1353741e+01
    4.1381456e+01
    4.1409360e+01
    4.1437327e+01
    4.1465420e+01
    4.1493575e+01
    4.1521857e+01
    4.1550265e+01
    4.1578735e+01
    4.1607332e+01
    4.1636054e+01
    4.1664840e+01
    4.1693689e+01
    4.1722726e+01
    4.1751827e+01
    4.1780990e+01
    4.1810343e+01
    4.1839758e+01
    4.1869237e+01
    4.1898841e+01
    4.1928571e+01
    4.1958365e+01
    4.1988284e+01
    4.2018330e+01
    4.2048438e+01
    4.2078672e+01
    4.2108970e+01
    4.2139393e+01
    4.2169942e+01
    4.2200617e+01
    4.2231356e+01
    4.2262157e+01
    4.2293084e+01
    4.2324137e+01
    4.2355316e+01
    4.2386558e+01
    4.2417863e+01
    4.2449358e+01
    4.2480915e+01
    4.2512535e+01
    4.2544281e+01
    4.2576153e+01
    4.2608151e+01
    4.2640212e+01
    4.2672336e+01
    4.2704586e+01
    4.2736961e+01
    4.2769463e+01
    4.2802028e+01
    4.2834719e+01
    4.2867473e+01
    4.2900353e+01
    4.2933359e+01
    4.2966427e+01
    4.2999622e+01
    4.3032880e+01
    4.3066264e+01
    4.3099773e+01
    4.3133346e+01
    4.3167045e+01
    4.3200869e+01
    4.3234757e+01
    4.3268770e+01
    4.3302847e+01
    4.3337050e+01
    4.3371378e+01
    4.3405770e+01
    4.3440287e+01
    4.3474868e+01
    4.3509637e+01
    4.3544407e+01
    4.3579365e+01
    4.3614386e+01
    4.3649471e+01
    4.3684681e+01
    4.3720018e+01
    4.3755480e+01
    4.3791005e+01
    4.3826594e+01
    4.3862371e+01
    4.3898211e+01
    4.3934114e+01
    4.3970144e+01
    4.4006299e+01
    4.4042517e+01
    4.4078861e+01
    4.4115331e+01
    4.4151864e+01
    4.4188524e+01
    4.4225246e+01
    4.4262094e+01
    4.4299068e+01
    4.4336105e+01
    4.4373268e+01
    4.4410557e+01
    4.4447909e+01
    4.4485387e+01
    4.4522928e+01
    4.4560595e+01
    4.4598388e+01
    4.4636243e+01
    4.4674225e+01
    4.4712270e+01
    4.4750441e+01
    4.4788738e+01
    4.4827098e+01
    4.4865583e+01
    4.4904195e+01
    4.4942870e+01
    4.4981670e+01
    4.5020534e+01
    4.5059524e+01
    4.5098639e+01
    4.5137818e+01
    4.5177123e+01
    4.5216490e+01
    4.5255984e+01
    4.5295603e+01
    4.5335286e+01
    4.5375094e+01
    4.5415029e+01
    4.5455026e+01
    4.5495087e+01
    4.5535336e+01
    4.5575649e+01
    4.5616024e+01
    4.5656589e+01
    4.5697153e+01
    4.5737906e+01
    4.5778723e+01
    4.5819665e+01
    4.5860670e+01
    4.5901801e+01
    4.5942996e+01
    4.5984379e+01
    4.6025762e+01
    4.6067334e+01
    4.6108970e+01
    4.6150668e+01
    4.6192492e+01
    4.6234442e+01
    4.6276518e+01
    4.6318657e+01
    4.6360859e+01
    4.6403250e+01
    4.6445704e+01
    4.6488221e+01
    4.6530864e+01
    4.6573633e+01
    4.6616465e+01
    4.6659423e+01
    4.6702507e+01
    4.6745654e+01
    4.6788927e+01
    4.6832263e+01
    4.6875724e+01
    4.6919312e+01
    4.6962963e+01
    4.7006740e+01
    4.7050642e+01
    4.7094608e+01
    4.7138700e+01
    4.7182855e+01
    4.7227135e+01
    4.7271479e+01
    4.7316012e+01
    4.7360544e+01
    4.7405266e+01
    4.7450050e+01
    4.7494961e+01
    4.7539934e+01
    4.7585034e+01
    4.7630197e+01
    4.7675485e+01
    4.7720899e+01
    4.7766377e+01
    4.7811980e+01
    4.7857710e+01
    4.7903502e+01
    4.7949421e+01
    4.7995402e+01
    4.8041509e+01
    4.8087743e+01
    4.8134039e+01
    4.8180461e+01
    4.8227009e+01
    4.8273621e+01
    4.8320295e+01
    4.8367158e+01
    4.8414084e+01
    4.8461073e+01
    4.8508188e+01
    4.8555430e+01
    4.8602797e+01
    4.8650227e+01
    4.8697720e+01
    4.8745339e+01
    4.8793084e+01
    4.8840955e+01
    4.8888889e+01
    4.8936886e+01
    4.8985072e+01
    4.9033321e+01
    4.9081633e+01
    4.9130071e+01
    4.9178634e+01
    4.9227324e+01
    4.9276077e+01
    4.9324893e+01
    4.9373835e+01
    4.9422902e+01
    4.9472096e+01
    4.9521353e+01
    4.9570673e+01
    4.9620181e+01
    4.9669753e+01
    4.9719388e+01
    4.9769148e+01
    4.9819035e+01
    4.9868985e+01
    4.9919060e+01
    4.9969262e+01
    5.0019526e+01
    5.0069917e+01
    5.0120370e+01
    5.0170950e+01
    5.0221655e+01
    5.0272424e+01
    5.0323318e+01
    5.0374276e+01
    5.0425422e+01
    5.0476568e+01
    5.0527904e+01
    5.0579302e+01
    5.0630763e+01
    5.0682351e+01
    5.0734064e+01
    5.0785840e+01
    5.0837743e+01
    5.0889771e+01
    5.0941862e+01
    5.0994079e+01
    5.1046359e+01
    5.1098828e+01
    5.1151298e+01
    5.1203893e+01
    5.1256614e+01
    5.1309461e+01
    5.1362371e+01
    5.1415407e+01
    5.1468506e+01
    5.1521731e+01
    5.1575082e+01
    5.1628496e+01
    5.1682036e+01
    5.1735639e+01
    5.1789368e+01
    5.1843222e+01
    5.1897140e+01
    5.1951184e+01
    5.2005291e+01
    5.2059524e+01
    5.2113883e+01
    5.2168304e+01
    5.2222852e+01
    5.2277463e+01
    5.2332263e+01
    5.2387062e+01
    5.2442051e+01
    5.2497103e+01
    5.2552217e+01
    5.2607458e+01
    5.2662824e+01
    5.2718254e+01
    5.2773810e+01
    5.2829491e+01
    5.2885236e+01
    5.2941106e+01
    5.2997103e+01
    5.3053162e+01
    5.3109284e+01
    5.3165533e+01
    5.3221907e+01
    5.3278408e+01
    5.3334971e+01
    5.3391660e+01
    5.3448413e+01
    5.3505291e+01
    5.3562232e+01
    5.3619300e+01
    5.3676493e+01
    5.3733749e+01
    5.3791131e+01
    5.3848639e+01
    5.3906211e+01
    5.3963908e+01
    5.4021668e+01
    5.4079554e+01
    5.4137566e+01
    5.4195641e+01
    5.4253842e+01
    5.4312106e+01
    5.4370496e+01
    5.4429012e+01
    5.4487591e+01
    5.4546296e+01
    5.4605064e+01
    5.4663958e+01
    5.4722978e+01
    5.4782061e+01
    5.4841270e+01
    5.4900542e+01
    5.4959940e+01
    5.5019463e+01
    5.5079050e+01
    5.5138763e+01
    5.5198539e+01
    5.5258503e+01
    5.5318468e+01
    5.5378559e+01
    5.5438776e+01
    5.5499118e+01
    5.5559524e+01
    5.5619992e+01
    5.5680650e+01
    5.5741371e+01
    5.5802154e+01
    5.5863064e+01
    5.5924099e+01
    5.5985198e+01
    5.6046422e+01
    5.6107710e+01
    5.6169186e+01
    5.6230663e+01
    5.6292265e+01
    5.6353993e+01
    5.6415848e+01
    5.6477765e+01
    5.6539809e+01
    5.6601915e+01
    5.6664147e+01
    5.6726442e+01
    5.6788864e+01
    5.6851411e+01
    5.6914021e+01
    5.6976757e+01
    5.7039557e+01
    5.7102482e+01
    5.7165533e+01
    5.7228647e+01
    5.7291887e+01
    5.7355190e+01
    5.7418619e+01
    5.7482174e+01
    5.7545792e+01
    5.7609536e+01
    5.7673343e+01
    5.7737276e+01
    5.7801335e+01
    5.7865457e+01
    5.7929705e+01