FoamFile
{
    version     2.0;
    format      ascii;
    class       scalarListList;
    object      rho;
}

// * * * * * * * * * * * * * * * * * * * * * * * * * * * * * * * * * * * * * //

7
(
    300 (1.2007680e+00 7.7333588e-01 5.4548981e-01 4.2553969e-01 3.5311939e-01 3.0406677e-01 2.6894961e-01 2.4239378e-01 2.2186832e-01 2.0563099e-01 1.9272842e-01 1.8236645e-01 1.7400603e-01 1.6726699e-01 1.6180976e-01 1.5737097e-01 1.5371100e-01 1.5066772e-01 1.4837617e-01 1.4729336e-01 1.4732471e-01 1.4790794e-01 1.4868322e-01 1.4951009e-01 1.5033715e-01 1.5114534e-01 1.5192766e-01 1.5268274e-01 1.5341152e-01 1.5411570e-01 1.5479764e-01 1.5546011e-01 1.5610494e-01 1.5673399e-01 1.5735010e-01 1.5795275e-01 1.5854472e-01 1.5912660e-01 1.5969968e-01 1.6026612e-01 1.6082141e-01 1.6137253e-01 1.6191541e-01 1.6245382e-01 1.6298464e-01 1.6351264e-01 1.6403175e-01 1.6455086e-01 1.6505930e-01 1.6556712e-01 1.6606949e-01 1.6656657e-01 1.6706364e-01 1.6755090e-01 1.6803773e-01 1.6852156e-01 1.6899878e-01 1.6947600e-01 1.6994803e-01 1.7041628e-01 1.7088453e-01 1.7134644e-01 1.7180644e-01 1.7226645e-01 1.7271966e-01 1.7317207e-01 1.7362448e-01 1.7407039e-01 1.7451608e-01 1.7496177e-01 1.7540147e-01 1.7584113e-01 1.7628079e-01 1.7671537e-01 1.7714984e-01 1.7758432e-01 1.7801465e-01 1.7844468e-01 1.7887472e-01 1.7930161e-01 1.7972798e-01 1.8015436e-01 1.8057853e-01 1.8100200e-01 1.8142547e-01 1.8184757e-01 1.8226888e-01 1.8269020e-01 1.8311080e-01 1.8353067e-01 1.8395054e-01 1.8437016e-01 1.8478929e-01 1.8520843e-01 1.8562755e-01 1.8604662e-01 1.8646568e-01 1.8688474e-01 1.8730440e-01 1.8772407e-01 1.8814373e-01 1.8856440e-01 1.8898532e-01 1.8940625e-01 1.8982829e-01 1.9025112e-01 1.9067395e-01 1.9109768e-01 1.9152299e-01 1.9194831e-01 1.9237403e-01 1.9280260e-01 1.9323116e-01 1.9365973e-01 1.9409176e-01 1.9452427e-01 1.9495679e-01 1.9539208e-01 1.9582912e-01 1.9626616e-01 1.9670492e-01 1.9714707e-01 1.9758921e-01 1.9803159e-01 1.9847936e-01 1.9892714e-01 1.9937491e-01 1.9982725e-01 2.0028126e-01 2.0073528e-01 2.0119203e-01 2.0165287e-01 2.0211371e-01 2.0257490e-01 2.0304314e-01 2.0351138e-01 2.0397961e-01 2.0445322e-01 2.0492949e-01 2.0540576e-01 2.0588431e-01 2.0636934e-01 2.0685436e-01 2.0733938e-01 2.0783214e-01 2.0832655e-01 2.0882097e-01 2.0931894e-01 2.0982350e-01 2.1032807e-01 2.1083263e-01 2.1134641e-01 2.1186193e-01 2.1237744e-01 2.1289642e-01 2.1342369e-01 2.1395095e-01 2.1447821e-01 2.1501441e-01 2.1555433e-01 2.1609426e-01 2.1663513e-01 2.1718864e-01 2.1774216e-01 2.1829567e-01 2.1885488e-01 2.1942305e-01 2.1999123e-01 2.2055940e-01 2.2113794e-01 2.2172183e-01 2.2230572e-01 2.2288961e-01 2.2348834e-01 2.2408913e-01 2.2468992e-01 2.2529151e-01 2.2591050e-01 2.2652949e-01 2.2714848e-01 2.2777061e-01 2.2840909e-01 2.2904756e-01 2.2968604e-01 2.3032930e-01 2.3098875e-01 2.3164819e-01 2.3230764e-01 2.3297259e-01 2.3365461e-01 2.3433663e-01 2.3501864e-01 2.3570567e-01 2.3641190e-01 2.3711813e-01 2.3782437e-01 2.3853357e-01 2.3926594e-01 2.3999832e-01 2.4073070e-01 2.4146307e-01 2.4222251e-01 2.4298307e-01 2.4374364e-01 2.4450421e-01 2.4528728e-01 2.4607842e-01 2.4686956e-01 2.4766070e-01 2.4846616e-01 2.4929050e-01 2.5011484e-01 2.5093918e-01 2.5176497e-01 2.5262547e-01 2.5348597e-01 2.5434646e-01 2.5520696e-01 2.5608945e-01 2.5698948e-01 2.5788951e-01 2.5878954e-01 2.5968958e-01 2.6063147e-01 2.6157496e-01 2.6251845e-01 2.6346195e-01 2.6441693e-01 2.6540856e-01 2.6640019e-01 2.6739182e-01 2.6838346e-01 2.6939471e-01 2.7043987e-01 2.7148503e-01 2.7253018e-01 2.7357534e-01 2.7463995e-01 2.7574521e-01 2.7685047e-01 2.7795574e-01 2.7906100e-01 2.8017141e-01 2.8134474e-01 2.8251807e-01 2.8369140e-01 2.8486473e-01 2.8603806e-01 2.8725769e-01 2.8850884e-01 2.8975999e-01 2.9101114e-01 2.9226229e-01 2.9351344e-01 2.9484055e-01 2.9618202e-01 2.9752350e-01 2.9886497e-01 3.0020644e-01 3.0154792e-01 3.0296745e-01 3.0441590e-01 3.0586435e-01 3.0731279e-01 3.0876124e-01 3.1020969e-01 3.1167859e-01 3.1325650e-01 3.1483441e-01 3.1641232e-01 3.1799023e-01 3.1956814e-01 3.2114604e-01 3.2272742e-01 3.2446580e-01 3.2620419e-01 3.2794258e-01 3.2968097e-01 3.3141936e-01 3.3315774e-01 3.3489613e-01 3.3667341e-01 3.3861669e-01 3.4055998e-01 3.4250326e-01 3.4444655e-01 3.4638983e-01 3.4833312e-01 3.5027640e-01 3.5221969e-01 3.5429087e-01 3.5650014e-01 3.5870941e-01 3.6091868e-01 3.6312795e-01 3.6533722e-01 3.6754649e-01 3.6975576e-01 3.7196503e-01 3.7417430e-01)
    300 (1.2007680e+00 7.5348822e-01 5.4378140e-01 4.2913303e-01 3.5743935e-01 3.0842657e-01 2.7285902e-01 2.4620811e-01 2.2586228e-01 2.0998985e-01 1.9734924e-01 1.8712789e-01 1.7876090e-01 1.7183293e-01 1.6601459e-01 1.6111116e-01 1.5688454e-01 1.5329642e-01 1.5055832e-01 1.4903147e-01 1.4860914e-01 1.4883533e-01 1.4935410e-01 1.4998926e-01 1.5066574e-01 1.5135190e-01 1.5203422e-01 1.5270690e-01 1.5336779e-01 1.5401538e-01 1.5465077e-01 1.5527408e-01 1.5588669e-01 1.5648804e-01 1.5708026e-01 1.5766379e-01 1.5823907e-01 1.5880660e-01 1.5936664e-01 1.5992003e-01 1.6046705e-01 1.6100819e-01 1.6154365e-01 1.6207331e-01 1.6259767e-01 1.6311701e-01 1.6363167e-01 1.6414191e-01 1.6464798e-01 1.6514922e-01 1.6564583e-01 1.6613898e-01 1.6662901e-01 1.6711356e-01 1.6759522e-01 1.6807437e-01 1.6854822e-01 1.6901999e-01 1.6948847e-01 1.6995327e-01 1.7041657e-01 1.7087494e-01 1.7133232e-01 1.7178573e-01 1.7223765e-01 1.7268645e-01 1.7313342e-01 1.7357776e-01 1.7402024e-01 1.7446045e-01 1.7489896e-01 1.7533537e-01 1.7577034e-01 1.7620320e-01 1.7663502e-01 1.7706479e-01 1.7749385e-01 1.7792077e-01 1.7834733e-01 1.7877176e-01 1.7919614e-01 1.7961849e-01 1.8004084e-01 1.8046159e-01 1.8088218e-01 1.8130168e-01 1.8172086e-01 1.8213934e-01 1.8255740e-01 1.8297510e-01 1.8339241e-01 1.8380958e-01 1.8422643e-01 1.8464327e-01 1.8506005e-01 1.8547682e-01 1.8589376e-01 1.8631070e-01 1.8672802e-01 1.8714541e-01 1.8756333e-01 1.8798152e-01 1.8840024e-01 1.8881954e-01 1.8923925e-01 1.8965993e-01 1.9008079e-01 1.9050311e-01 1.9092543e-01 1.9134955e-01 1.9177383e-01 1.9219972e-01 1.9262626e-01 1.9305416e-01 1.9348337e-01 1.9391343e-01 1.9434555e-01 1.9477792e-01 1.9521323e-01 1.9564854e-01 1.9608680e-01 1.9652556e-01 1.9696665e-01 1.9740913e-01 1.9785315e-01 1.9829959e-01 1.9874664e-01 1.9919728e-01 1.9964792e-01 2.0010257e-01 2.0055770e-01 2.0101582e-01 2.0147569e-01 2.0193737e-01 2.0240228e-01 2.0286759e-01 2.0333782e-01 2.0380806e-01 2.0428267e-01 2.0475852e-01 2.0523715e-01 2.0571892e-01 2.0620161e-01 2.0668962e-01 2.0717764e-01 2.0767095e-01 2.0816552e-01 2.0866324e-01 2.0916476e-01 2.0966687e-01 2.1017559e-01 2.1068431e-01 2.1119833e-01 2.1171473e-01 2.1223339e-01 2.1275783e-01 2.1328226e-01 2.1381388e-01 2.1434676e-01 2.1488316e-01 2.1542492e-01 2.1596668e-01 2.1651707e-01 2.1706818e-01 2.1762342e-01 2.1818433e-01 2.1874525e-01 2.1931540e-01 2.1988662e-01 2.2046161e-01 2.2104369e-01 2.2162577e-01 2.2221665e-01 2.2281020e-01 2.2340567e-01 2.2401123e-01 2.2461679e-01 2.2522898e-01 2.2584717e-01 2.2646537e-01 2.2709501e-01 2.2772662e-01 2.2836028e-01 2.2900599e-01 2.2965170e-01 2.3030341e-01 2.3096407e-01 2.3162473e-01 2.3229508e-01 2.3297151e-01 2.3364795e-01 2.3433743e-01 2.3503069e-01 2.3572394e-01 2.3643306e-01 2.3714413e-01 2.3785521e-01 2.3858433e-01 2.3931439e-01 2.4004444e-01 2.4079374e-01 2.4154406e-01 2.4229439e-01 2.4306387e-01 2.4383572e-01 2.4460756e-01 2.4539738e-01 2.4619217e-01 2.4698696e-01 2.4779699e-01 2.4861614e-01 2.4943529e-01 2.5026532e-01 2.5111045e-01 2.5195558e-01 2.5280538e-01 2.5367812e-01 2.5455086e-01 2.5542360e-01 2.5632218e-01 2.5722432e-01 2.5812647e-01 2.5904548e-01 2.5997901e-01 2.6091253e-01 2.6185079e-01 2.6281794e-01 2.6378509e-01 2.6475223e-01 2.6574428e-01 2.6674742e-01 2.6775057e-01 2.6876072e-01 2.6980267e-01 2.7084462e-01 2.7188657e-01 2.7295327e-01 2.7403710e-01 2.7512094e-01 2.7620477e-01 2.7733051e-01 2.7845976e-01 2.7958902e-01 2.8072681e-01 2.8190541e-01 2.8308402e-01 2.8426263e-01 2.8545853e-01 2.8669122e-01 2.8792391e-01 2.8915660e-01 2.9040999e-01 2.9170206e-01 2.9299413e-01 2.9428620e-01 2.9559548e-01 2.9695316e-01 2.9831084e-01 2.9966852e-01 3.0102873e-01 3.0245955e-01 3.0389037e-01 3.0532118e-01 3.0675200e-01 3.0823458e-01 3.0974737e-01 3.1126016e-01 3.1277295e-01 3.1429131e-01 3.1589659e-01 3.1750187e-01 3.1910715e-01 3.2071243e-01 3.2234788e-01 3.2405879e-01 3.2576970e-01 3.2748061e-01 3.2919151e-01 3.3093416e-01 3.3276623e-01 3.3459830e-01 3.3643037e-01 3.3826245e-01 3.4009794e-01 3.4206792e-01 3.4403790e-01 3.4600788e-01 3.4797786e-01 3.4994784e-01 3.5202130e-01 3.5414566e-01 3.5627001e-01 3.5839437e-01 3.6051872e-01 3.6269736e-01 3.6499274e-01 3.6728813e-01 3.6958352e-01 3.7187891e-01 3.7417430e-01)
    300 (1.2007680e+00 7.3985563e-01 5.3888951e-01 4.2797857e-01 3.5825172e-01 3.1037542e-01 2.7607090e-01 2.4986423e-01 2.3016018e-01 2.1451799e-01 2.0189712e-01 1.9153868e-01 1.8291505e-01 1.7574851e-01 1.6961326e-01 1.6432162e-01 1.5969212e-01 1.5575767e-01 1.5277366e-01 1.5096692e-01 1.5021819e-01 1.5015670e-01 1.5046281e-01 1.5094555e-01 1.5150966e-01 1.5211034e-01 1.5272519e-01 1.5334381e-01 1.5396061e-01 1.5457260e-01 1.5517822e-01 1.5577727e-01 1.5636930e-01 1.5695376e-01 1.5753158e-01 1.5810278e-01 1.5866747e-01 1.5922589e-01 1.5977831e-01 1.6032493e-01 1.6086599e-01 1.6140179e-01 1.6193263e-01 1.6245861e-01 1.6297876e-01 1.6349449e-01 1.6400612e-01 1.6451395e-01 1.6501598e-01 1.6551443e-01 1.6600967e-01 1.6650001e-01 1.6698668e-01 1.6747078e-01 1.6794986e-01 1.6842611e-01 1.6889973e-01 1.6936866e-01 1.6983591e-01 1.7029916e-01 1.7075992e-01 1.7121818e-01 1.7167296e-01 1.7212653e-01 1.7257582e-01 1.7302436e-01 1.7346915e-01 1.7391292e-01 1.7435378e-01 1.7479327e-01 1.7523034e-01 1.7566596e-01 1.7609963e-01 1.7653183e-01 1.7696234e-01 1.7739149e-01 1.7781918e-01 1.7824568e-01 1.7867084e-01 1.7909504e-01 1.7951802e-01 1.7994024e-01 1.8036126e-01 1.8078177e-01 1.8120122e-01 1.8162036e-01 1.8203852e-01 1.8245656e-01 1.8287381e-01 1.8329105e-01 1.8370758e-01 1.8412412e-01 1.8454036e-01 1.8495657e-01 1.8537276e-01 1.8578895e-01 1.8620527e-01 1.8662167e-01 1.8703836e-01 1.8745536e-01 1.8787261e-01 1.8829045e-01 1.8870841e-01 1.8912740e-01 1.8954638e-01 1.8996671e-01 1.9038714e-01 1.9080883e-01 1.9123100e-01 1.9165423e-01 1.9207843e-01 1.9250335e-01 1.9292998e-01 1.9335678e-01 1.9378615e-01 1.9421551e-01 1.9464736e-01 1.9507977e-01 1.9551403e-01 1.9594975e-01 1.9638650e-01 1.9682586e-01 1.9726523e-01 1.9770842e-01 1.9815164e-01 1.9859774e-01 1.9904518e-01 1.9949421e-01 1.9994611e-01 2.0039806e-01 2.0085475e-01 2.0131143e-01 2.0177141e-01 2.0223321e-01 2.0269638e-01 2.0316361e-01 2.0363083e-01 2.0410293e-01 2.0457597e-01 2.0505144e-01 2.0553062e-01 2.0600979e-01 2.0649509e-01 2.0698085e-01 2.0746959e-01 2.0796223e-01 2.0845487e-01 2.0895424e-01 2.0945430e-01 2.0995708e-01 2.1046492e-01 2.1097277e-01 2.1148694e-01 2.1200310e-01 2.1252046e-01 2.1304538e-01 2.1357029e-01 2.1409968e-01 2.1463389e-01 2.1516809e-01 2.1571013e-01 2.1625423e-01 2.1679904e-01 2.1735353e-01 2.1790802e-01 2.1846595e-01 2.1903140e-01 2.1959686e-01 2.2016852e-01 2.2074563e-01 2.2132273e-01 2.2190873e-01 2.2249800e-01 2.2308726e-01 2.2368820e-01 2.2429030e-01 2.2489334e-01 2.2550891e-01 2.2612448e-01 2.2674305e-01 2.2737284e-01 2.2800262e-01 2.2863737e-01 2.2928201e-01 2.2992665e-01 2.3057814e-01 2.3123844e-01 2.3189874e-01 2.3256760e-01 2.3324436e-01 2.3392113e-01 2.3460796e-01 2.3530203e-01 2.3599611e-01 2.3670151e-01 2.3741388e-01 2.3812625e-01 2.3885076e-01 2.3958237e-01 2.4031398e-01 2.4105809e-01 2.4180999e-01 2.4256189e-01 2.4332602e-01 2.4409939e-01 2.4487276e-01 2.4565728e-01 2.4645337e-01 2.4724947e-01 2.4805458e-01 2.4887479e-01 2.4969501e-01 2.5052073e-01 2.5136655e-01 2.5221237e-01 2.5305847e-01 2.5393153e-01 2.5480459e-01 2.5567765e-01 2.5657267e-01 2.5747485e-01 2.5837702e-01 2.5929294e-01 2.6022629e-01 2.6115963e-01 2.6209513e-01 2.6306191e-01 2.6402869e-01 2.6499547e-01 2.6598449e-01 2.6698731e-01 2.6799014e-01 2.6899648e-01 2.7003823e-01 2.7107999e-01 2.7212175e-01 2.7318362e-01 2.7426764e-01 2.7535166e-01 2.7643569e-01 2.7755491e-01 2.7868503e-01 2.7981515e-01 2.8094527e-01 2.8212287e-01 2.8330344e-01 2.8448402e-01 2.8566460e-01 2.8690048e-01 2.8813669e-01 2.8937290e-01 2.9060911e-01 2.9190125e-01 2.9319914e-01 2.9449703e-01 2.9579493e-01 2.9713826e-01 2.9850509e-01 2.9987193e-01 3.0123877e-01 3.0262324e-01 3.0406772e-01 3.0551220e-01 3.0695669e-01 3.0840117e-01 3.0989708e-01 3.1143005e-01 3.1296302e-01 3.1449599e-01 3.1602896e-01 3.1763158e-01 3.1926652e-01 3.2090146e-01 3.2253640e-01 3.2417134e-01 3.2586404e-01 3.2761841e-01 3.2937278e-01 3.3112715e-01 3.3288152e-01 3.3463590e-01 3.3652056e-01 3.3841722e-01 3.4031389e-01 3.4221055e-01 3.4410722e-01 3.4600388e-01 3.4805513e-01 3.5012241e-01 3.5218969e-01 3.5425697e-01 3.5632425e-01 3.5839154e-01 3.6056430e-01 3.6283263e-01 3.6510097e-01 3.6736930e-01 3.6963763e-01 3.7190597e-01 3.7417430e-01)
    300 (1.2007680e+00 7.4986984e-01 5.4623906e-01 4.3443882e-01 3.6434467e-01 3.1610491e-01 2.8228147e-01 2.5620915e-01 2.3645015e-01 2.2051578e-01 2.0765292e-01 1.9704223e-01 1.8816158e-01 1.8053621e-01 1.7393837e-01 1.6816702e-01 1.6315025e-01 1.5897883e-01 1.5585188e-01 1.5385921e-01 1.5283839e-01 1.5250128e-01 1.5257918e-01 1.5288946e-01 1.5332583e-01 1.5383074e-01 1.5437178e-01 1.5493175e-01 1.5550144e-01 1.5607477e-01 1.5664860e-01 1.5722082e-01 1.5779001e-01 1.5835567e-01 1.5891736e-01 1.5947461e-01 1.6002713e-01 1.6057503e-01 1.6111811e-01 1.6165649e-01 1.6219032e-01 1.6271970e-01 1.6324478e-01 1.6376562e-01 1.6428107e-01 1.6479264e-01 1.6530059e-01 1.6580450e-01 1.6630332e-01 1.6679909e-01 1.6729156e-01 1.6777887e-01 1.6826373e-01 1.6874489e-01 1.6922203e-01 1.6969731e-01 1.7016747e-01 1.7063575e-01 1.7110064e-01 1.7156248e-01 1.7202230e-01 1.7247822e-01 1.7293318e-01 1.7338358e-01 1.7383340e-01 1.7427923e-01 1.7472430e-01 1.7516604e-01 1.7560678e-01 1.7604463e-01 1.7648141e-01 1.7691574e-01 1.7734901e-01 1.7778005e-01 1.7821017e-01 1.7863831e-01 1.7906566e-01 1.7949120e-01 1.7991610e-01 1.8033929e-01 1.8076204e-01 1.8118327e-01 1.8160424e-01 1.8202381e-01 1.8244326e-01 1.8286147e-01 1.8327968e-01 1.8369684e-01 1.8411401e-01 1.8453045e-01 1.8494681e-01 1.8536285e-01 1.8577880e-01 1.8619467e-01 1.8661049e-01 1.8702637e-01 1.8744230e-01 1.8785843e-01 1.8827482e-01 1.8869144e-01 1.8910857e-01 1.8952585e-01 1.8994394e-01 1.9036205e-01 1.9078145e-01 1.9120085e-01 1.9162161e-01 1.9204259e-01 1.9246486e-01 1.9288769e-01 1.9331166e-01 1.9373670e-01 1.9416258e-01 1.9459012e-01 1.9501806e-01 1.9544843e-01 1.9587879e-01 1.9631208e-01 1.9674556e-01 1.9718144e-01 1.9761822e-01 1.9805683e-01 1.9849722e-01 1.9893864e-01 1.9938292e-01 1.9982724e-01 2.0027563e-01 2.0072402e-01 2.0117569e-01 2.0162850e-01 2.0208344e-01 2.0254091e-01 2.0299916e-01 2.0346170e-01 2.0392424e-01 2.0439113e-01 2.0485891e-01 2.0532947e-01 2.0580294e-01 2.0627716e-01 2.0675657e-01 2.0723598e-01 2.0772009e-01 2.0820582e-01 2.0869379e-01 2.0918616e-01 2.0967853e-01 2.1017732e-01 2.1067672e-01 2.1117955e-01 2.1168638e-01 2.1219322e-01 2.1270780e-01 2.1322247e-01 2.1374119e-01 2.1426411e-01 2.1478703e-01 2.1531837e-01 2.1584999e-01 2.1638547e-01 2.1692626e-01 2.1746706e-01 2.1801605e-01 2.1856653e-01 2.1911948e-01 2.1968013e-01 2.2024077e-01 2.2080799e-01 2.2137940e-01 2.2195080e-01 2.2253298e-01 2.2311577e-01 2.2370151e-01 2.2429627e-01 2.2489104e-01 2.2549223e-01 2.2609968e-01 2.2670714e-01 2.2732432e-01 2.2794521e-01 2.2856610e-01 2.2919979e-01 2.2983499e-01 2.3047041e-01 2.3112079e-01 2.3177118e-01 2.3242283e-01 2.3308941e-01 2.3375598e-01 2.3442394e-01 2.3510780e-01 2.3579167e-01 2.3647579e-01 2.3717813e-01 2.3788047e-01 2.3858281e-01 2.3930252e-01 2.4002471e-01 2.4074690e-01 2.4148308e-01 2.4222662e-01 2.4297015e-01 2.4372172e-01 2.4448829e-01 2.4525485e-01 2.4602142e-01 2.4681158e-01 2.4760307e-01 2.4839455e-01 2.4919795e-01 2.5001654e-01 2.5083513e-01 2.5165372e-01 2.5249637e-01 2.5334449e-01 2.5419261e-01 2.5504279e-01 2.5592323e-01 2.5680366e-01 2.5768409e-01 2.5857089e-01 2.5948681e-01 2.6040274e-01 2.6131867e-01 2.6224052e-01 2.6319561e-01 2.6415069e-01 2.6510578e-01 2.6606086e-01 2.6705778e-01 2.6805622e-01 2.6905465e-01 2.7005309e-01 2.7108064e-01 2.7212737e-01 2.7317410e-01 2.7422082e-01 2.7527056e-01 2.7637131e-01 2.7747205e-01 2.7857279e-01 2.7967354e-01 2.8079367e-01 2.8195505e-01 2.8311644e-01 2.8427782e-01 2.8543920e-01 2.8662639e-01 2.8785641e-01 2.8908644e-01 2.9031646e-01 2.9154649e-01 2.9279104e-01 2.9409969e-01 2.9540833e-01 2.9671698e-01 2.9802562e-01 2.9933427e-01 3.0070717e-01 3.0210688e-01 3.0350658e-01 3.0490629e-01 3.0630600e-01 3.0770571e-01 3.0920134e-01 3.1070799e-01 3.1221465e-01 3.1372130e-01 3.1522795e-01 3.1673461e-01 3.1832854e-01 3.1996348e-01 3.2159842e-01 3.2323337e-01 3.2486831e-01 3.2650325e-01 3.2813819e-01 3.2992235e-01 3.3171399e-01 3.3350562e-01 3.3529726e-01 3.3708889e-01 3.3888053e-01 3.4067216e-01 3.4258943e-01 3.4457311e-01 3.4655679e-01 3.4854047e-01 3.5052415e-01 3.5250783e-01 3.5449151e-01 3.5647520e-01 3.5866940e-01 3.6088439e-01 3.6309937e-01 3.6531436e-01 3.6752934e-01 3.6974433e-01 3.7195931e-01 3.7417430e-01)
    300 (1.2007680e+00 7.5917430e-01 5.5128343e-01 4.3918901e-01 3.6974036e-01 3.2111189e-01 2.8727631e-01 2.6122929e-01 2.4091155e-01 2.2490122e-01 2.1183048e-01 2.0100059e-01 1.9177717e-01 1.8379965e-01 1.7687413e-01 1.7081680e-01 1.6563440e-01 1.6140794e-01 1.5827009e-01 1.5622746e-01 1.5509700e-01 1.5462337e-01 1.5457046e-01 1.5477322e-01 1.5512466e-01 1.5556335e-01 1.5605271e-01 1.5657163e-01 1.5710784e-01 1.5765367e-01 1.5820445e-01 1.5875714e-01 1.5930992e-01 1.5986134e-01 1.6041056e-01 1.6095712e-01 1.6150028e-01 1.6203981e-01 1.6257568e-01 1.6310773e-01 1.6363593e-01 1.6416009e-01 1.6467992e-01 1.6519572e-01 1.6570773e-01 1.6621608e-01 1.6672089e-01 1.6722091e-01 1.6771733e-01 1.6821060e-01 1.6870033e-01 1.6918555e-01 1.6966809e-01 1.7014755e-01 1.7062261e-01 1.7109550e-01 1.7156488e-01 1.7203089e-01 1.7249522e-01 1.7295504e-01 1.7341326e-01 1.7386846e-01 1.7432094e-01 1.7477174e-01 1.7521899e-01 1.7566535e-01 1.7610802e-01 1.7654973e-01 1.7698878e-01 1.7742631e-01 1.7786183e-01 1.7829556e-01 1.7872792e-01 1.7915826e-01 1.7958769e-01 1.8001504e-01 1.8044183e-01 1.8086655e-01 1.8129094e-01 1.8171340e-01 1.8213571e-01 1.8255625e-01 1.8297673e-01 1.8339564e-01 1.8381451e-01 1.8423220e-01 1.8464985e-01 1.8506654e-01 1.8548320e-01 1.8589917e-01 1.8631513e-01 1.8673071e-01 1.8714629e-01 1.8756165e-01 1.8797700e-01 1.8839247e-01 1.8880793e-01 1.8922376e-01 1.8963959e-01 1.9005602e-01 1.9047248e-01 1.9088973e-01 1.9130708e-01 1.9172540e-01 1.9214392e-01 1.9256347e-01 1.9298334e-01 1.9340437e-01 1.9382594e-01 1.9424868e-01 1.9467223e-01 1.9509692e-01 1.9552278e-01 1.9594961e-01 1.9637805e-01 1.9680720e-01 1.9723844e-01 1.9767005e-01 1.9810436e-01 1.9853867e-01 1.9897617e-01 1.9941380e-01 1.9985427e-01 2.0029549e-01 2.0073901e-01 2.0118404e-01 2.0163071e-01 2.0207986e-01 2.0252977e-01 2.0298325e-01 2.0343674e-01 2.0389457e-01 2.0435275e-01 2.0481418e-01 2.0527730e-01 2.0574236e-01 2.0621072e-01 2.0667942e-01 2.0715339e-01 2.0762736e-01 2.0810559e-01 2.0858545e-01 2.0906762e-01 2.0955379e-01 2.1003995e-01 2.1053256e-01 2.1102529e-01 2.1152204e-01 2.1202180e-01 2.1252255e-01 2.1302970e-01 2.1353685e-01 2.1404920e-01 2.1456412e-01 2.1508050e-01 2.1560372e-01 2.1612693e-01 2.1665583e-01 2.1718777e-01 2.1772058e-01 2.1826169e-01 2.1880279e-01 2.1934883e-01 2.1989967e-01 2.2045052e-01 2.2101044e-01 2.2157160e-01 2.2213510e-01 2.2270715e-01 2.2327920e-01 2.2385709e-01 2.2444068e-01 2.2502426e-01 2.2561709e-01 2.2621295e-01 2.2680882e-01 2.2741703e-01 2.2802591e-01 2.2863606e-01 2.2925879e-01 2.2988153e-01 2.3050687e-01 2.3114439e-01 2.3178191e-01 2.3242257e-01 2.3307588e-01 2.3372920e-01 2.3438511e-01 2.3505533e-01 2.3572554e-01 2.3639639e-01 2.3708469e-01 2.3777298e-01 2.3846128e-01 2.3916588e-01 2.3987361e-01 2.4058135e-01 2.4130078e-01 2.4202950e-01 2.4275822e-01 2.4349115e-01 2.4424247e-01 2.4499379e-01 2.4574511e-01 2.4651406e-01 2.4728981e-01 2.4806556e-01 2.4884565e-01 2.4964774e-01 2.5044983e-01 2.5125191e-01 2.5206879e-01 2.5289939e-01 2.5372999e-01 2.5456059e-01 2.5541533e-01 2.5627675e-01 2.5713817e-01 2.5799959e-01 2.5889296e-01 2.5978785e-01 2.6068275e-01 2.6157850e-01 2.6250981e-01 2.6344113e-01 2.6437244e-01 2.6530376e-01 2.6627409e-01 2.6724523e-01 2.6821636e-01 2.6918750e-01 2.7019418e-01 2.7120912e-01 2.7222405e-01 2.7323899e-01 2.7427830e-01 2.7534156e-01 2.7640482e-01 2.7746807e-01 2.7853359e-01 2.7965058e-01 2.8076757e-01 2.8188456e-01 2.8300155e-01 2.8414278e-01 2.8531992e-01 2.8649706e-01 2.8767420e-01 2.8885134e-01 2.9006661e-01 2.9131169e-01 2.9255677e-01 2.9380185e-01 2.9504692e-01 2.9632954e-01 2.9765212e-01 2.9897470e-01 3.0029727e-01 3.0161985e-01 3.0295422e-01 3.0436628e-01 3.0577833e-01 3.0719039e-01 3.0860244e-01 3.1001450e-01 3.1147401e-01 3.1299086e-01 3.1450772e-01 3.1602457e-01 3.1754143e-01 3.1905828e-01 3.2062301e-01 3.2226473e-01 3.2390645e-01 3.2554817e-01 3.2718990e-01 3.2883162e-01 3.3047334e-01 3.3224266e-01 3.3403544e-01 3.3582822e-01 3.3762099e-01 3.3941377e-01 3.4120655e-01 3.4299933e-01 3.4493658e-01 3.4691157e-01 3.4888656e-01 3.5086155e-01 3.5283654e-01 3.5481153e-01 3.5678652e-01 3.5884958e-01 3.6103882e-01 3.6322807e-01 3.6541732e-01 3.6760656e-01 3.6979581e-01 3.7198505e-01 3.7417430e-01)
    300 (1.2007680e+00 7.6390425e-01 5.5629205e-01 4.4459417e-01 3.7423375e-01 3.2566029e-01 2.9136270e-01 2.6531351e-01 2.4491114e-01 2.2858452e-01 2.1523577e-01 2.0405483e-01 1.9453877e-01 1.8632238e-01 1.7917343e-01 1.7298103e-01 1.6773953e-01 1.6355151e-01 1.6047052e-01 1.5844110e-01 1.5727202e-01 1.5672578e-01 1.5659219e-01 1.5672087e-01 1.5701102e-01 1.5739865e-01 1.5784726e-01 1.5833278e-01 1.5884168e-01 1.5936481e-01 1.5989646e-01 1.6043308e-01 1.6097185e-01 1.6151120e-01 1.6204988e-01 1.6258705e-01 1.6312214e-01 1.6365460e-01 1.6418408e-01 1.6471019e-01 1.6523291e-01 1.6575214e-01 1.6626782e-01 1.6677997e-01 1.6728868e-01 1.6779383e-01 1.6829448e-01 1.6879192e-01 1.6928630e-01 1.6977686e-01 1.7026336e-01 1.7074723e-01 1.7122786e-01 1.7170432e-01 1.7217859e-01 1.7264918e-01 1.7311660e-01 1.7358231e-01 1.7404329e-01 1.7450285e-01 1.7495918e-01 1.7541295e-01 1.7586484e-01 1.7631325e-01 1.7676076e-01 1.7720437e-01 1.7764717e-01 1.7808701e-01 1.7852549e-01 1.7896177e-01 1.7939633e-01 1.7982934e-01 1.8026039e-01 1.8069039e-01 1.8111830e-01 1.8154555e-01 1.8197069e-01 1.8239544e-01 1.8281821e-01 1.8324080e-01 1.8366149e-01 1.8408209e-01 1.8450106e-01 1.8491995e-01 1.8533758e-01 1.8575512e-01 1.8617167e-01 1.8658815e-01 1.8700385e-01 1.8741950e-01 1.8783464e-01 1.8824976e-01 1.8866459e-01 1.8907943e-01 1.8949423e-01 1.8990904e-01 1.9032413e-01 1.9073923e-01 1.9115477e-01 1.9157033e-01 1.9198659e-01 1.9240294e-01 1.9282015e-01 1.9323757e-01 1.9365590e-01 1.9407458e-01 1.9449426e-01 1.9491455e-01 1.9533578e-01 1.9575798e-01 1.9618101e-01 1.9660552e-01 1.9703054e-01 1.9745757e-01 1.9788466e-01 1.9831446e-01 1.9874427e-01 1.9917662e-01 1.9960951e-01 2.0004441e-01 2.0048059e-01 2.0091811e-01 2.0135793e-01 2.0179815e-01 2.0224183e-01 2.0268551e-01 2.0313263e-01 2.0358054e-01 2.0403069e-01 2.0448312e-01 2.0493627e-01 2.0539347e-01 2.0585068e-01 2.0631189e-01 2.0677429e-01 2.0723868e-01 2.0770657e-01 2.0817446e-01 2.0864782e-01 2.0912164e-01 2.0959826e-01 2.1007832e-01 2.1055839e-01 2.1104476e-01 2.1153155e-01 2.1202109e-01 2.1251494e-01 2.1300880e-01 2.1350878e-01 2.1401026e-01 2.1451318e-01 2.1502273e-01 2.1553229e-01 2.1604620e-01 2.1656433e-01 2.1708246e-01 2.1760788e-01 2.1813520e-01 2.1866284e-01 2.1919989e-01 2.1973694e-01 2.2027630e-01 2.2082375e-01 2.2137120e-01 2.2192260e-01 2.2248116e-01 2.2303972e-01 2.2360339e-01 2.2417380e-01 2.2474421e-01 2.2532024e-01 2.2590334e-01 2.2648643e-01 2.2707479e-01 2.2767149e-01 2.2826819e-01 2.2886866e-01 2.2948001e-01 2.3009136e-01 2.3070354e-01 2.3133052e-01 2.3195749e-01 2.3258446e-01 2.3322451e-01 2.3386832e-01 2.3451213e-01 2.3516366e-01 2.3582546e-01 2.3648726e-01 2.3714929e-01 2.3783042e-01 2.3851156e-01 2.3919270e-01 2.3988475e-01 2.4058661e-01 2.4128847e-01 2.4199033e-01 2.4271378e-01 2.4343785e-01 2.4416192e-01 2.4489428e-01 2.4564227e-01 2.4639026e-01 2.4713826e-01 2.4790283e-01 2.4867661e-01 2.4945038e-01 2.5022416e-01 2.5102171e-01 2.5182333e-01 2.5262495e-01 2.5342657e-01 2.5425754e-01 2.5508941e-01 2.5592129e-01 2.5675317e-01 2.5761733e-01 2.5848213e-01 2.5934694e-01 2.6021174e-01 2.6110801e-01 2.6200887e-01 2.6290973e-01 2.6381059e-01 2.6473645e-01 2.6567699e-01 2.6661753e-01 2.6755806e-01 2.6850892e-01 2.6949340e-01 2.7047788e-01 2.7146236e-01 2.7244684e-01 2.7346390e-01 2.7449744e-01 2.7553097e-01 2.7656450e-01 2.7759803e-01 2.7868068e-01 2.7976932e-01 2.8085797e-01 2.8194662e-01 2.8303527e-01 2.8417922e-01 2.8533056e-01 2.8648189e-01 2.8763323e-01 2.8878457e-01 2.8997880e-01 2.9120220e-01 2.9242561e-01 2.9364901e-01 2.9487242e-01 2.9609582e-01 2.9740138e-01 2.9870897e-01 3.0001656e-01 3.0132415e-01 3.0263174e-01 3.0393934e-01 3.0534114e-01 3.0674921e-01 3.0815728e-01 3.0956534e-01 3.1097341e-01 3.1238148e-01 3.1383407e-01 3.1536503e-01 3.1689599e-01 3.1842695e-01 3.1995790e-01 3.2148886e-01 3.2301982e-01 3.2456741e-01 3.2625290e-01 3.2793838e-01 3.2962386e-01 3.3130934e-01 3.3299482e-01 3.3468030e-01 3.3636578e-01 3.3805200e-01 3.3993418e-01 3.4181636e-01 3.4369853e-01 3.4558071e-01 3.4746289e-01 3.4934507e-01 3.5122725e-01 3.5310943e-01 3.5502895e-01 3.5715621e-01 3.5928347e-01 3.6141073e-01 3.6353799e-01 3.6566525e-01 3.6779252e-01 3.6991978e-01 3.7204704e-01 3.7417430e-01)
    300 (1.2007680e+00 7.6692951e-01 5.6754275e-01 4.5421155e-01 3.8243529e-01 3.3547420e-01 3.0032976e-01 2.7327136e-01 2.5201275e-01 2.3498926e-01 2.2102929e-01 2.0926012e-01 1.9926598e-01 1.9066079e-01 1.8325389e-01 1.7700481e-01 1.7188797e-01 1.6794308e-01 1.6510043e-01 1.6322122e-01 1.6209234e-01 1.6151081e-01 1.6130655e-01 1.6135285e-01 1.6156360e-01 1.6188162e-01 1.6227081e-01 1.6270607e-01 1.6317198e-01 1.6365911e-01 1.6415987e-01 1.6466969e-01 1.6518564e-01 1.6570485e-01 1.6622588e-01 1.6674741e-01 1.6726859e-01 1.6778857e-01 1.6830680e-01 1.6882290e-01 1.6933647e-01 1.6984721e-01 1.7035502e-01 1.7085982e-01 1.7136150e-01 1.7186012e-01 1.7235579e-01 1.7284775e-01 1.7333619e-01 1.7382171e-01 1.7430446e-01 1.7478351e-01 1.7525916e-01 1.7573231e-01 1.7620250e-01 1.7666896e-01 1.7713326e-01 1.7759478e-01 1.7805285e-01 1.7850911e-01 1.7896232e-01 1.7941289e-01 1.7986191e-01 1.8030736e-01 1.8075128e-01 1.8119316e-01 1.8163235e-01 1.8207042e-01 1.8250562e-01 1.8293955e-01 1.8337179e-01 1.8380195e-01 1.8423130e-01 1.8465813e-01 1.8508427e-01 1.8550867e-01 1.8593194e-01 1.8635421e-01 1.8677495e-01 1.8719525e-01 1.8761386e-01 1.8803216e-01 1.8844926e-01 1.8886585e-01 1.8928171e-01 1.8969697e-01 1.9011182e-01 1.9052602e-01 1.9094002e-01 1.9135346e-01 1.9176683e-01 1.9217990e-01 1.9259294e-01 1.9300583e-01 1.9341876e-01 1.9383177e-01 1.9424491e-01 1.9465824e-01 1.9507183e-01 1.9548571e-01 1.9590002e-01 1.9631473e-01 1.9673000e-01 1.9714572e-01 1.9756218e-01 1.9797921e-01 1.9839716e-01 1.9881578e-01 1.9923548e-01 1.9965605e-01 2.0007768e-01 2.0050035e-01 2.0092408e-01 2.0134916e-01 2.0177514e-01 2.0220280e-01 2.0263114e-01 2.0306170e-01 2.0349255e-01 2.0392622e-01 2.0435989e-01 2.0479669e-01 2.0523371e-01 2.0567346e-01 2.0611416e-01 2.0655688e-01 2.0700147e-01 2.0744721e-01 2.0789605e-01 2.0834489e-01 2.0879822e-01 2.0925159e-01 2.0970826e-01 2.1016647e-01 2.1062644e-01 2.1108985e-01 2.1155326e-01 2.1202196e-01 2.1249087e-01 2.1296304e-01 2.1343789e-01 2.1391338e-01 2.1439448e-01 2.1487558e-01 2.1536081e-01 2.1584856e-01 2.1633708e-01 2.1683192e-01 2.1732676e-01 2.1782583e-01 2.1832814e-01 2.1883045e-01 2.1934066e-01 2.1985087e-01 2.2036445e-01 2.2088297e-01 2.2140149e-01 2.2192696e-01 2.2245434e-01 2.2298298e-01 2.2351961e-01 2.2405625e-01 2.2459738e-01 2.2514380e-01 2.2569023e-01 2.2624442e-01 2.2680117e-01 2.2735807e-01 2.2792575e-01 2.2849344e-01 2.2906390e-01 2.2964310e-01 2.3022229e-01 2.3080676e-01 2.3139810e-01 2.3198944e-01 2.3258836e-01 2.3319258e-01 2.3379680e-01 2.3441057e-01 2.3502837e-01 2.3564618e-01 2.3627514e-01 2.3690731e-01 2.3753947e-01 2.3818395e-01 2.3883138e-01 2.3947880e-01 2.4013901e-01 2.4080261e-01 2.4146621e-01 2.4214222e-01 2.4282298e-01 2.4350375e-01 2.4419552e-01 2.4489456e-01 2.4559360e-01 2.4630089e-01 2.4701938e-01 2.4773787e-01 2.4846013e-01 2.4919941e-01 2.4993870e-01 2.5067798e-01 2.5143658e-01 2.5219815e-01 2.5295971e-01 2.5373262e-01 2.5451807e-01 2.5530353e-01 2.5608899e-01 2.5690021e-01 2.5771142e-01 2.5852263e-01 2.5934595e-01 2.6018491e-01 2.6102386e-01 2.6186281e-01 2.6272506e-01 2.6359413e-01 2.6446320e-01 2.6533234e-01 2.6623408e-01 2.6713581e-01 2.6803755e-01 2.6894323e-01 2.6988066e-01 2.7081810e-01 2.7175554e-01 2.7269627e-01 2.7367293e-01 2.7464960e-01 2.7562626e-01 2.7660292e-01 2.7761882e-01 2.7863872e-01 2.7965863e-01 2.8067854e-01 2.8172529e-01 2.8279331e-01 2.8386132e-01 2.8492934e-01 2.8599762e-01 2.8711971e-01 2.8824180e-01 2.8936389e-01 2.9048598e-01 2.9162113e-01 2.9280444e-01 2.9398775e-01 2.9517106e-01 2.9635437e-01 2.9754813e-01 2.9880156e-01 3.0005500e-01 3.0130844e-01 3.0256188e-01 3.0381531e-01 3.0513096e-01 3.0646574e-01 3.0780053e-01 3.0913531e-01 3.1047009e-01 3.1180488e-01 3.1323527e-01 3.1466603e-01 3.1609679e-01 3.1752755e-01 3.1895831e-01 3.2038907e-01 3.2190708e-01 3.2345327e-01 3.2499946e-01 3.2654565e-01 3.2809184e-01 3.2963803e-01 3.3118422e-01 3.3286314e-01 3.3455017e-01 3.3623720e-01 3.3792423e-01 3.3961126e-01 3.4129828e-01 3.4298531e-01 3.4476280e-01 3.4662013e-01 3.4847747e-01 3.5033480e-01 3.5219213e-01 3.5404947e-01 3.5590680e-01 3.5776413e-01 3.5977525e-01 3.6183226e-01 3.6388926e-01 3.6594627e-01 3.6800328e-01 3.7006029e-01 3.7211729e-01 3.7417430e-01)
)

// *********************** vim: set ft=cpp et sw=4 : *********************** //
