FoamFile
{
    version     2.0;
    format      ascii;
    class       scalarListList;
    object      T;
}

// * * * * * * * * * * * * * * * * * * * * * * * * * * * * * * * * * * * * * //

7
(
    300 (2.9400000e+02 4.8014387e+02 6.5775725e+02 8.2629522e+02 9.8522588e+02 1.1353170e+03 1.2764456e+03 1.4084880e+03 1.5303414e+03 1.6412712e+03 1.7399412e+03 1.8257750e+03 1.8984580e+03 1.9579026e+03 2.0048951e+03 2.0406110e+03 2.0668993e+03 2.0854124e+03 2.0945983e+03 2.0889930e+03 2.0700460e+03 2.0450651e+03 2.0186862e+03 1.9926592e+03 1.9675552e+03 1.9435122e+03 1.9205203e+03 1.8985122e+03 1.8773971e+03 1.8570888e+03 1.8375085e+03 1.8185620e+03 1.8002012e+03 1.7823686e+03 1.7649807e+03 1.7480666e+03 1.7315395e+03 1.7153884e+03 1.6995736e+03 1.6840162e+03 1.6689081e+03 1.6539735e+03 1.6393808e+03 1.6249829e+03 1.6109156e+03 1.5969745e+03 1.5834307e+03 1.5698868e+03 1.5568332e+03 1.5438082e+03 1.5310403e+03 1.5185220e+03 1.5060036e+03 1.4939571e+03 1.4819308e+03 1.4700526e+03 1.4585005e+03 1.4469484e+03 1.4356600e+03 1.4245638e+03 1.4134676e+03 1.4027067e+03 1.3920466e+03 1.3813865e+03 1.3710973e+03 1.3608517e+03 1.3506061e+03 1.3407407e+03 1.3308884e+03 1.3210361e+03 1.3115536e+03 1.3020736e+03 1.2925937e+03 1.2834593e+03 1.2743319e+03 1.2652045e+03 1.2563871e+03 1.2475916e+03 1.2387961e+03 1.2302699e+03 1.2217879e+03 1.2133059e+03 1.2050483e+03 1.1968621e+03 1.1886759e+03 1.1806672e+03 1.1727597e+03 1.1648522e+03 1.1570756e+03 1.1494314e+03 1.1417871e+03 1.1342276e+03 1.1268314e+03 1.1194353e+03 1.1120791e+03 1.1049171e+03 1.0977551e+03 1.0905930e+03 1.0836496e+03 1.0767090e+03 1.0697685e+03 1.0629933e+03 1.0562621e+03 1.0495309e+03 1.0429149e+03 1.0363817e+03 1.0298486e+03 1.0233832e+03 1.0170380e+03 1.0106927e+03 1.0043698e+03 9.9820182e+02 9.9203383e+02 9.8586585e+02 9.7984555e+02 9.7384591e+02 9.6784627e+02 9.6194493e+02 9.5610524e+02 9.5026556e+02 9.4447723e+02 9.3879004e+02 9.3310285e+02 9.2742189e+02 9.2188019e+02 9.1633848e+02 9.1079678e+02 9.0535674e+02 8.9995408e+02 8.9455143e+02 8.8920198e+02 8.8393235e+02 8.7866272e+02 8.7339909e+02 8.6825676e+02 8.6311443e+02 8.5797210e+02 8.5291153e+02 8.4789138e+02 8.4287122e+02 8.3788176e+02 8.3297881e+02 8.2807586e+02 8.2317292e+02 8.1836273e+02 8.1357254e+02 8.0878236e+02 8.0403006e+02 7.9934817e+02 7.9466629e+02 7.8998440e+02 7.8539030e+02 7.8081268e+02 7.7623506e+02 7.7168709e+02 7.6720989e+02 7.6273269e+02 7.5825549e+02 7.5384658e+02 7.4946617e+02 7.4508577e+02 7.4071191e+02 7.3642493e+02 7.3213796e+02 7.2785099e+02 7.2359900e+02 7.1940209e+02 7.1520517e+02 7.1100825e+02 7.0686863e+02 7.0275862e+02 6.9864861e+02 6.9453860e+02 6.9050228e+02 6.8647620e+02 6.8245012e+02 6.7842764e+02 6.7448259e+02 6.7053753e+02 6.6659247e+02 6.6266002e+02 6.5879312e+02 6.5492621e+02 6.5105930e+02 6.4720963e+02 6.4341814e+02 6.3962665e+02 6.3583516e+02 6.3206142e+02 6.2834272e+02 6.2462403e+02 6.2090534e+02 6.1720116e+02 6.1355274e+02 6.0990432e+02 6.0625591e+02 6.0261521e+02 5.9903477e+02 5.9545433e+02 5.9187390e+02 5.8829346e+02 5.8477613e+02 5.8126145e+02 5.7774677e+02 5.7423209e+02 5.7076443e+02 5.6731365e+02 5.6386287e+02 5.6041209e+02 5.5698806e+02 5.5359933e+02 5.5021060e+02 5.4682187e+02 5.4343557e+02 5.4010725e+02 5.3677894e+02 5.3345063e+02 5.3012232e+02 5.2682677e+02 5.2355736e+02 5.2028794e+02 5.1701853e+02 5.1374912e+02 5.1053533e+02 5.0732367e+02 5.0411201e+02 5.0090035e+02 4.9770222e+02 4.9454724e+02 4.9139226e+02 4.8823729e+02 4.8508231e+02 4.8194782e+02 4.7884875e+02 4.7574968e+02 4.7265061e+02 4.6955154e+02 4.6647040e+02 4.6342672e+02 4.6038303e+02 4.5733935e+02 4.5429567e+02 4.5125616e+02 4.4826764e+02 4.4527912e+02 4.4229060e+02 4.3930208e+02 4.3631357e+02 4.3335786e+02 4.3042451e+02 4.2749115e+02 4.2455779e+02 4.2162443e+02 4.1869108e+02 4.1580459e+02 4.1292697e+02 4.1004935e+02 4.0717172e+02 4.0429410e+02 4.0141648e+02 3.9858043e+02 3.9575977e+02 3.9293911e+02 3.9011846e+02 3.8729780e+02 3.8447714e+02 3.8166581e+02 3.7890417e+02 3.7614252e+02 3.7338088e+02 3.7061923e+02 3.6785759e+02 3.6509594e+02 3.6233563e+02 3.5963583e+02 3.5693603e+02 3.5423623e+02 3.5153643e+02 3.4883663e+02 3.4613682e+02 3.4343702e+02 3.4074970e+02 3.3811566e+02 3.3548163e+02 3.3284759e+02 3.3021355e+02 3.2757952e+02 3.2494548e+02 3.2231144e+02 3.1967740e+02 3.1707699e+02 3.1451288e+02 3.1194877e+02 3.0938466e+02 3.0682055e+02 3.0425644e+02 3.0169233e+02 2.9912822e+02 2.9656411e+02 2.9400000e+02)
    300 (2.9400000e+02 4.7876900e+02 6.5455454e+02 8.2047828e+02 9.7654092e+02 1.1229400e+03 1.2596521e+03 1.3860078e+03 1.5008522e+03 1.6035688e+03 1.6941543e+03 1.7728990e+03 1.8403732e+03 1.8974199e+03 1.9452443e+03 1.9846062e+03 2.0172423e+03 2.0431643e+03 2.0594995e+03 2.0614972e+03 2.0502892e+03 2.0315907e+03 2.0099220e+03 1.9874983e+03 1.9652257e+03 1.9434234e+03 1.9222337e+03 1.9016476e+03 1.8816456e+03 1.8622349e+03 1.8433332e+03 1.8249257e+03 1.8069531e+03 1.7894409e+03 1.7723049e+03 1.7555301e+03 1.7391003e+03 1.7230064e+03 1.7072420e+03 1.6917717e+03 1.6765846e+03 1.6616690e+03 1.6470138e+03 1.6326252e+03 1.6184912e+03 1.6045925e+03 1.5909190e+03 1.5774586e+03 1.5641980e+03 1.5511731e+03 1.5383728e+03 1.5257453e+03 1.5132753e+03 1.5010744e+03 1.4890213e+03 1.4770962e+03 1.4654435e+03 1.4538981e+03 1.4425239e+03 1.4313436e+03 1.4202432e+03 1.4094088e+03 1.3986291e+03 1.3880713e+03 1.3775993e+03 1.3673067e+03 1.3571225e+03 1.3470922e+03 1.3371770e+03 1.3274021e+03 1.3177387e+03 1.3082136e+03 1.2987869e+03 1.2895040e+03 1.2802996e+03 1.2712500e+03 1.2622561e+03 1.2534318e+03 1.2446384e+03 1.2360307e+03 1.2274284e+03 1.2190285e+03 1.2106286e+03 1.2024088e+03 1.1942087e+03 1.1861558e+03 1.1781470e+03 1.1702545e+03 1.1624303e+03 1.1546915e+03 1.1470438e+03 1.1394526e+03 1.1319745e+03 1.1245251e+03 1.1172109e+03 1.1098984e+03 1.1027410e+03 1.0955836e+03 1.0885533e+03 1.0815469e+03 1.0746373e+03 1.0677764e+03 1.0609835e+03 1.0542628e+03 1.0475826e+03 1.0409967e+03 1.0344250e+03 1.0279692e+03 1.0215134e+03 1.0151720e+03 1.0088415e+03 1.0025968e+03 9.9638679e+02 9.9023556e+02 9.8414145e+02 9.7808050e+02 9.7209835e+02 9.6612481e+02 9.6025087e+02 9.5437693e+02 9.4859272e+02 9.4282352e+02 9.3711788e+02 9.3145000e+02 9.2582059e+02 9.2025101e+02 9.1469545e+02 9.0922108e+02 9.0374670e+02 8.9835494e+02 8.9297295e+02 8.8764766e+02 8.8235532e+02 8.7709439e+02 8.7188923e+02 8.6669049e+02 8.6156983e+02 8.5644917e+02 8.5139279e+02 8.4635452e+02 8.4135395e+02 8.3639564e+02 8.3144881e+02 8.2656843e+02 8.2168805e+02 8.1686905e+02 8.1206454e+02 8.0729366e+02 8.0256303e+02 7.9783830e+02 7.9317968e+02 7.8852107e+02 7.8391099e+02 7.7932256e+02 7.7475348e+02 7.7023354e+02 7.6571361e+02 7.6125054e+02 7.5679750e+02 7.5237037e+02 7.4798258e+02 7.4359478e+02 7.3926578e+02 7.3494172e+02 7.3064390e+02 7.2638210e+02 7.2212030e+02 7.1791299e+02 7.1371197e+02 7.0953160e+02 7.0539007e+02 7.0124854e+02 6.9715166e+02 6.9306826e+02 6.8899397e+02 6.8496746e+02 6.8094094e+02 6.7694356e+02 6.7297265e+02 6.6900173e+02 6.6507737e+02 6.6116103e+02 6.5725245e+02 6.5338957e+02 6.4952668e+02 6.4568485e+02 6.4187439e+02 6.3806394e+02 6.3428510e+02 6.3052614e+02 6.2676718e+02 6.2304758e+02 6.1933937e+02 6.1563116e+02 6.1196725e+02 6.0830883e+02 6.0465041e+02 6.0103870e+02 5.9742940e+02 5.9382010e+02 5.9025673e+02 5.8669582e+02 5.8313490e+02 5.7961632e+02 5.7610294e+02 5.7258957e+02 5.6911270e+02 5.6564594e+02 5.6217917e+02 5.5874104e+02 5.5532001e+02 5.5189898e+02 5.4849673e+02 5.4512055e+02 5.4174437e+02 5.3837561e+02 5.3504325e+02 5.3171089e+02 5.2837854e+02 5.2508386e+02 5.2179439e+02 5.1850492e+02 5.1523816e+02 5.1199092e+02 5.0874369e+02 5.0550229e+02 5.0229641e+02 4.9909054e+02 4.9588466e+02 4.9270692e+02 4.8954173e+02 4.8637653e+02 4.8321859e+02 4.8009354e+02 4.7696850e+02 4.7384346e+02 4.7074186e+02 4.6765648e+02 4.6457111e+02 4.6148573e+02 4.5843656e+02 4.5539043e+02 4.5234429e+02 4.4930489e+02 4.4629765e+02 4.4329042e+02 4.4028318e+02 4.3728836e+02 4.3431995e+02 4.3135155e+02 4.2838314e+02 4.2542822e+02 4.2249849e+02 4.1956876e+02 4.1663903e+02 4.1371946e+02 4.1082848e+02 4.0793750e+02 4.0504651e+02 4.0215688e+02 3.9930487e+02 3.9645286e+02 3.9360085e+02 3.9074885e+02 3.8792171e+02 3.8510909e+02 3.8229647e+02 3.7948386e+02 3.7667364e+02 3.7390089e+02 3.7112815e+02 3.6835541e+02 3.6558267e+02 3.6282154e+02 3.6008945e+02 3.5735737e+02 3.5462528e+02 3.5189320e+02 3.4917199e+02 3.4648144e+02 3.4379090e+02 3.4110035e+02 3.3840980e+02 3.3572029e+02 3.3307162e+02 3.3042294e+02 3.2777426e+02 3.2512558e+02 3.2247691e+02 3.1985603e+02 3.1724882e+02 3.1464161e+02 3.1203440e+02 3.0942719e+02 3.0683288e+02 3.0426630e+02 3.0169973e+02 2.9913315e+02 2.9656658e+02 2.9400000e+02)
    300 (2.9400000e+02 4.7679719e+02 6.5074784e+02 8.1453436e+02 9.6760044e+02 1.1100417e+03 1.2411972e+03 1.3616082e+03 1.4691972e+03 1.5654330e+03 1.6506856e+03 1.7257017e+03 1.7912886e+03 1.8476208e+03 1.8964946e+03 1.9387050e+03 1.9752804e+03 2.0053058e+03 2.0252087e+03 2.0316052e+03 2.0255252e+03 2.0114249e+03 1.9932842e+03 1.9734886e+03 1.9532061e+03 1.9329692e+03 1.9130031e+03 1.8934233e+03 1.8742446e+03 1.8554825e+03 1.8371425e+03 1.8191803e+03 1.8015969e+03 1.7843989e+03 1.7675365e+03 1.7510006e+03 1.7347819e+03 1.7188699e+03 1.7032520e+03 1.6879169e+03 1.6728521e+03 1.6580441e+03 1.6434806e+03 1.6291591e+03 1.6151242e+03 1.6013059e+03 1.5876902e+03 1.5742634e+03 1.5611283e+03 1.5481699e+03 1.5353713e+03 1.5228212e+03 1.5104584e+03 1.4982270e+03 1.4862510e+03 1.4744209e+03 1.4627267e+03 1.4512793e+03 1.4399219e+03 1.4287801e+03 1.4177720e+03 1.4068987e+03 1.3962218e+03 1.3856125e+03 1.3752479e+03 1.3649264e+03 1.3548268e+03 1.3447901e+03 1.3349357e+03 1.3251674e+03 1.3155529e+03 1.3060381e+03 1.2966563e+03 1.2873806e+03 1.2782252e+03 1.2691755e+03 1.2602392e+03 1.2514030e+03 1.2426787e+03 1.2340452e+03 1.2255265e+03 1.2170853e+03 1.2087645e+03 1.2005058e+03 1.1923766e+03 1.1842918e+03 1.1763470e+03 1.1684278e+03 1.1606615e+03 1.1529007e+03 1.1453067e+03 1.1377127e+03 1.1302688e+03 1.1228401e+03 1.1155350e+03 1.1082664e+03 1.1010941e+03 1.0939798e+03 1.0869349e+03 1.0799696e+03 1.0730470e+03 1.0662257e+03 1.0594206e+03 1.0527376e+03 1.0460546e+03 1.0394964e+03 1.0329479e+03 1.0264930e+03 1.0200731e+03 1.0137182e+03 1.0074240e+03 1.0011653e+03 9.9499120e+02 9.8882434e+02 9.8276666e+02 9.7670899e+02 9.7074319e+02 9.6479805e+02 9.5891381e+02 9.5307799e+02 9.4727220e+02 9.4154248e+02 9.3581276e+02 9.3018531e+02 9.2455861e+02 9.1900059e+02 9.1347410e+02 9.0798264e+02 9.0255368e+02 8.9712594e+02 8.9179195e+02 8.8645797e+02 8.8118357e+02 8.7594197e+02 8.7072330e+02 8.6557193e+02 8.6042057e+02 8.5534289e+02 8.5027939e+02 8.4524999e+02 8.4027227e+02 8.3529454e+02 8.3039458e+02 8.2550052e+02 8.2064184e+02 8.1582954e+02 8.1101724e+02 8.0627722e+02 8.0154467e+02 7.9683931e+02 7.9218462e+02 7.8752994e+02 7.8293321e+02 7.7835477e+02 7.7378656e+02 7.6928241e+02 7.6477825e+02 7.6030908e+02 7.5587760e+02 7.5144612e+02 7.4707076e+02 7.4271023e+02 7.3835438e+02 7.3406305e+02 7.2977172e+02 7.2550156e+02 7.2127766e+02 7.1705376e+02 7.1286486e+02 7.0870655e+02 7.0454824e+02 7.0043651e+02 6.9634191e+02 6.9224730e+02 6.8820892e+02 6.8417614e+02 6.8014752e+02 6.7617480e+02 6.7220209e+02 6.6824167e+02 6.6432725e+02 6.6041284e+02 6.5651735e+02 6.5265959e+02 6.4880183e+02 6.4496815e+02 6.4116541e+02 6.3736268e+02 6.3358777e+02 6.2983852e+02 6.2608928e+02 6.2237028e+02 6.1867307e+02 6.1497586e+02 6.1131000e+02 6.0766344e+02 6.0401688e+02 6.0040149e+02 5.9680431e+02 5.9320713e+02 5.8963957e+02 5.8609048e+02 5.8254139e+02 5.7901911e+02 5.7551705e+02 5.7201498e+02 5.6853541e+02 5.6507922e+02 5.6162302e+02 5.5818360e+02 5.5477231e+02 5.5136102e+02 5.4795920e+02 5.4459194e+02 5.4122468e+02 5.3785787e+02 5.3453378e+02 5.3120969e+02 5.2788560e+02 5.2459353e+02 5.2131189e+02 5.1803025e+02 5.1476701e+02 5.1152710e+02 5.0828718e+02 5.0504992e+02 5.0185125e+02 4.9865258e+02 4.9545391e+02 4.9228030e+02 4.8912227e+02 4.8596424e+02 4.8280985e+02 4.7969216e+02 4.7657448e+02 4.7345679e+02 4.7035812e+02 4.6728039e+02 4.6420266e+02 4.6112492e+02 4.5807753e+02 4.5503954e+02 4.5200154e+02 4.4896355e+02 4.4596292e+02 4.4296464e+02 4.3996637e+02 4.3696809e+02 4.3400927e+02 4.3105069e+02 4.2809211e+02 4.2513353e+02 4.2221109e+02 4.1929237e+02 4.1637366e+02 4.1345494e+02 4.1056274e+02 4.0768426e+02 4.0480577e+02 4.0192729e+02 3.9905807e+02 3.9622038e+02 3.9338268e+02 3.9054498e+02 3.8770729e+02 3.8489374e+02 3.8209761e+02 3.7930147e+02 3.7650533e+02 3.7370920e+02 3.7094225e+02 3.6818884e+02 3.6543543e+02 3.6268203e+02 3.5992862e+02 3.5719663e+02 3.5448751e+02 3.5177840e+02 3.4906928e+02 3.4636017e+02 3.4365105e+02 3.4098434e+02 3.3832153e+02 3.3565873e+02 3.3299592e+02 3.3033311e+02 3.2767031e+02 3.2505134e+02 3.2243692e+02 3.1982250e+02 3.1720808e+02 3.1459366e+02 3.1197924e+02 3.0939069e+02 3.0682558e+02 3.0426046e+02 3.0169535e+02 2.9913023e+02 2.9656512e+02 2.9400000e+02)
    300 (2.9400000e+02 4.7245485e+02 6.4238754e+02 8.0203675e+02 9.5028628e+02 1.0872426e+03 1.2113390e+03 1.3247172e+03 1.4258722e+03 1.5170101e+03 1.5981023e+03 1.6701120e+03 1.7338772e+03 1.7908245e+03 1.8415974e+03 1.8869173e+03 1.9266067e+03 1.9588387e+03 1.9804644e+03 1.9895767e+03 1.9875538e+03 1.9776561e+03 1.9631103e+03 1.9461476e+03 1.9280617e+03 1.9095507e+03 1.8909822e+03 1.8725414e+03 1.8543313e+03 1.8363883e+03 1.8187537e+03 1.8014131e+03 1.7843935e+03 1.7676654e+03 1.7512293e+03 1.7350851e+03 1.7192270e+03 1.7036504e+03 1.6883455e+03 1.6733025e+03 1.6585118e+03 1.6439612e+03 1.6296380e+03 1.6155372e+03 1.6017232e+03 1.5881115e+03 1.5746874e+03 1.5614711e+03 1.5485160e+03 1.5357188e+03 1.5230928e+03 1.5107322e+03 1.4984987e+03 1.4864575e+03 1.4746262e+03 1.4628924e+03 1.4514257e+03 1.4400589e+03 1.4288734e+03 1.4178543e+03 1.4069459e+03 1.3962552e+03 1.3856182e+03 1.3752371e+03 1.3648892e+03 1.3547763e+03 1.3447107e+03 1.3348490e+03 1.3250501e+03 1.3154325e+03 1.3058858e+03 1.2965042e+03 1.2871962e+03 1.2780439e+03 1.2689624e+03 1.2600308e+03 1.2511638e+03 1.2424451e+03 1.2337819e+03 1.2252693e+03 1.2168006e+03 1.2084866e+03 1.2002029e+03 1.1920798e+03 1.1839724e+03 1.1760338e+03 1.1680954e+03 1.1603346e+03 1.1525737e+03 1.1449681e+03 1.1373783e+03 1.1299208e+03 1.1224957e+03 1.1151800e+03 1.1079135e+03 1.1007342e+03 1.0936211e+03 1.0865729e+03 1.0796074e+03 1.0726852e+03 1.0658621e+03 1.0590611e+03 1.0523754e+03 1.0456913e+03 1.0391377e+03 1.0325841e+03 1.0261395e+03 1.0197136e+03 1.0133729e+03 1.0070707e+03 1.0008298e+03 9.9464644e+02 9.8850150e+02 9.8243282e+02 9.7638016e+02 9.7042250e+02 9.6446485e+02 9.5860866e+02 9.5275862e+02 9.4698481e+02 9.4123919e+02 9.3554475e+02 9.2990053e+02 9.2428253e+02 9.1873695e+02 9.1319254e+02 9.0774272e+02 9.0229290e+02 8.9691235e+02 8.9155577e+02 8.8624064e+02 8.8097475e+02 8.7572241e+02 8.7054491e+02 8.6536740e+02 8.6026141e+02 8.5516998e+02 8.5011957e+02 8.4511204e+02 8.4011486e+02 8.3518909e+02 8.3026332e+02 8.2539678e+02 8.2055067e+02 8.1573091e+02 8.1096256e+02 8.0619420e+02 8.0149499e+02 7.9680245e+02 7.9214407e+02 7.8752549e+02 7.8290692e+02 7.7835963e+02 7.7381319e+02 7.6930134e+02 7.6482538e+02 7.6034942e+02 7.5593989e+02 7.5153252e+02 7.4715341e+02 7.4281319e+02 7.3847296e+02 7.3418816e+02 7.2991340e+02 7.2565426e+02 7.2144350e+02 7.1723274e+02 7.1306023e+02 7.0891204e+02 7.0476385e+02 7.0067355e+02 6.9658652e+02 6.9251426e+02 6.8848722e+02 6.8446018e+02 6.8046287e+02 6.7649451e+02 6.7252614e+02 6.6859959e+02 6.6468894e+02 6.6077829e+02 6.5691834e+02 6.5306431e+02 6.4921112e+02 6.4541277e+02 6.4161441e+02 6.3782035e+02 6.3407678e+02 6.3033320e+02 6.2659396e+02 6.2290443e+02 6.1921490e+02 6.1552614e+02 6.1188993e+02 6.0825372e+02 6.0461751e+02 6.0102738e+02 5.9744383e+02 5.9386027e+02 5.9031084e+02 5.8677932e+02 5.8324781e+02 5.7973427e+02 5.7625430e+02 5.7277433e+02 5.6929436e+02 5.6586282e+02 5.6243400e+02 5.5900517e+02 5.5559865e+02 5.5222054e+02 5.4884243e+02 5.4546432e+02 5.4212735e+02 5.3879972e+02 5.3547209e+02 5.3214767e+02 5.2887027e+02 5.2559288e+02 5.2231548e+02 5.1904706e+02 5.1581965e+02 5.1259225e+02 5.0936484e+02 5.0614498e+02 5.0296742e+02 4.9978986e+02 4.9661231e+02 4.9343475e+02 4.9030526e+02 4.8717751e+02 4.8404976e+02 4.8092202e+02 4.7782430e+02 4.7474635e+02 4.7166841e+02 4.6859046e+02 4.6551529e+02 4.6248713e+02 4.5945898e+02 4.5643082e+02 4.5340266e+02 4.5039042e+02 4.4741205e+02 4.4443368e+02 4.4145531e+02 4.3847694e+02 4.3551740e+02 4.3258911e+02 4.2966082e+02 4.2673253e+02 4.2380424e+02 4.2088530e+02 4.1800762e+02 4.1512995e+02 4.1225227e+02 4.0937459e+02 4.0649691e+02 4.0365551e+02 4.0082924e+02 3.9800297e+02 3.9517670e+02 3.9235042e+02 3.8952415e+02 3.8674515e+02 3.8397157e+02 3.8119799e+02 3.7842442e+02 3.7565084e+02 3.7287726e+02 3.7014082e+02 3.6742182e+02 3.6470282e+02 3.6198383e+02 3.5926483e+02 3.5654583e+02 3.5382683e+02 3.5116219e+02 3.4850027e+02 3.4583835e+02 3.4317643e+02 3.4051452e+02 3.3785260e+02 3.3519068e+02 3.3256748e+02 3.2996474e+02 3.2736200e+02 3.2475927e+02 3.2215653e+02 3.1955379e+02 3.1695105e+02 3.1434832e+02 3.1180007e+02 3.0925720e+02 3.0671434e+02 3.0417147e+02 3.0162860e+02 2.9908573e+02 2.9654287e+02 2.9400000e+02)
    300 (2.9400000e+02 4.6885143e+02 6.3566118e+02 7.9206314e+02 9.3615037e+02 1.0690191e+03 1.1885985e+03 1.2975172e+03 1.3958434e+03 1.4837045e+03 1.5625349e+03 1.6330776e+03 1.6967409e+03 1.7543996e+03 1.8064360e+03 1.8532228e+03 1.8937334e+03 1.9259887e+03 1.9474865e+03 1.9572436e+03 1.9568155e+03 1.9489729e+03 1.9364604e+03 1.9212496e+03 1.9046193e+03 1.8873032e+03 1.8697269e+03 1.8521268e+03 1.8346354e+03 1.8173263e+03 1.8002413e+03 1.7834021e+03 1.7668147e+03 1.7505044e+03 1.7344509e+03 1.7186470e+03 1.7031098e+03 1.6878386e+03 1.6728123e+03 1.6580276e+03 1.6434770e+03 1.6291632e+03 1.6151007e+03 1.6012607e+03 1.5876316e+03 1.5742028e+03 1.5609636e+03 1.5479812e+03 1.5351896e+03 1.5225636e+03 1.5101231e+03 1.4979209e+03 1.4858587e+03 1.4739584e+03 1.4622917e+03 1.4507392e+03 1.4393711e+03 1.4281841e+03 1.4170875e+03 1.4062399e+03 1.3954793e+03 1.3848846e+03 1.3744433e+03 1.3640967e+03 1.3539592e+03 1.3438734e+03 1.3340058e+03 1.3241993e+03 1.3145612e+03 1.3050194e+03 1.2956056e+03 1.2863157e+03 1.2771193e+03 1.2680678e+03 1.2590816e+03 1.2502570e+03 1.2414758e+03 1.2328662e+03 1.2242827e+03 1.2158775e+03 1.2074856e+03 1.1992756e+03 1.1910719e+03 1.1830446e+03 1.1750235e+03 1.1671694e+03 1.1593232e+03 1.1516365e+03 1.1439576e+03 1.1364324e+03 1.1289137e+03 1.1215438e+03 1.1141780e+03 1.1069590e+03 1.0997405e+03 1.0926665e+03 1.0855925e+03 1.0786552e+03 1.0717220e+03 1.0649151e+03 1.0581176e+03 1.0514362e+03 1.0447704e+03 1.0382090e+03 1.0316699e+03 1.0252236e+03 1.0188074e+03 1.0124721e+03 1.0061750e+03 9.9994602e+02 9.9376403e+02 9.8763689e+02 9.8156635e+02 9.7553688e+02 9.6957422e+02 9.6363847e+02 9.5778090e+02 9.5193529e+02 9.4617985e+02 9.4042441e+02 9.3476470e+02 9.2910869e+02 9.2352943e+02 9.1797030e+02 9.1246815e+02 9.0700332e+02 9.0157512e+02 8.9620235e+02 8.9084503e+02 8.8556199e+02 8.8027894e+02 8.7507706e+02 8.6988164e+02 8.6474253e+02 8.5963253e+02 8.5455345e+02 8.4952695e+02 8.4450525e+02 8.3956016e+02 8.3461508e+02 8.2972759e+02 8.2486204e+02 8.2002490e+02 8.1523711e+02 8.1044931e+02 8.0573613e+02 8.0102435e+02 7.9635495e+02 7.9171726e+02 7.8708941e+02 7.8252437e+02 7.7795933e+02 7.7344179e+02 7.6894759e+02 7.6446566e+02 7.6004096e+02 7.5561626e+02 7.5123580e+02 7.4687894e+02 7.4252846e+02 7.3823802e+02 7.3394759e+02 7.2969010e+02 7.2546474e+02 7.2123939e+02 7.1707018e+02 7.1290863e+02 7.0876048e+02 7.0466137e+02 7.0056225e+02 6.9649427e+02 6.9245658e+02 6.8841888e+02 6.8442661e+02 6.8044925e+02 6.7647188e+02 6.7255073e+02 6.6863258e+02 6.6471979e+02 6.6086001e+02 6.5700022e+02 6.5315058e+02 6.4934821e+02 6.4554584e+02 6.4175471e+02 6.3800891e+02 6.3426311e+02 6.3052589e+02 6.2683595e+02 6.2314600e+02 6.1945801e+02 6.1582317e+02 6.1218832e+02 6.0855348e+02 6.0496433e+02 6.0138397e+02 5.9780361e+02 5.9425322e+02 5.9072664e+02 5.8720006e+02 5.8368339e+02 5.8021006e+02 5.7673672e+02 5.7326338e+02 5.6982799e+02 5.6640723e+02 5.6298647e+02 5.5957428e+02 5.5620542e+02 5.5283656e+02 5.4946770e+02 5.4612534e+02 5.4280758e+02 5.3948981e+02 5.3617205e+02 5.3289370e+02 5.2962626e+02 5.2635882e+02 5.2309139e+02 5.1987132e+02 5.1665352e+02 5.1343573e+02 5.1021908e+02 5.0705031e+02 5.0388154e+02 5.0071277e+02 4.9754400e+02 4.9442274e+02 4.9130245e+02 4.8818217e+02 4.8506188e+02 4.8198068e+02 4.7890854e+02 4.7583641e+02 4.7276428e+02 4.6971627e+02 4.6669194e+02 4.6366762e+02 4.6064329e+02 4.5762097e+02 4.5464441e+02 4.5166785e+02 4.4869128e+02 4.4571472e+02 4.4275742e+02 4.3982866e+02 4.3689990e+02 4.3397113e+02 4.3104237e+02 4.2814059e+02 4.2525989e+02 4.2237920e+02 4.1949851e+02 4.1661782e+02 4.1376070e+02 4.1092869e+02 4.0809667e+02 4.0526465e+02 4.0243263e+02 3.9960714e+02 3.9682464e+02 3.9404214e+02 3.9125963e+02 3.8847713e+02 3.8569463e+02 3.8293515e+02 3.8020348e+02 3.7747181e+02 3.7474014e+02 3.7200847e+02 3.6927680e+02 3.6656530e+02 3.6388626e+02 3.6120722e+02 3.5852818e+02 3.5584914e+02 3.5317009e+02 3.5049105e+02 3.4785829e+02 3.4523404e+02 3.4260978e+02 3.3998553e+02 3.3736128e+02 3.3473702e+02 3.3211277e+02 3.2953323e+02 3.2696537e+02 3.2439750e+02 3.2182964e+02 3.1926178e+02 3.1669392e+02 3.1412606e+02 3.1158132e+02 3.0906970e+02 3.0655808e+02 3.0404647e+02 3.0153485e+02 2.9902323e+02 2.9651162e+02 2.9400000e+02)
    300 (2.9400000e+02 4.6578000e+02 6.2961762e+02 7.8281738e+02 9.2387691e+02 1.0531798e+03 1.1698465e+03 1.2755091e+03 1.3710682e+03 1.4572575e+03 1.5349596e+03 1.6053019e+03 1.6691236e+03 1.7271903e+03 1.7799022e+03 1.8269840e+03 1.8672686e+03 1.8985458e+03 1.9190863e+03 1.9286205e+03 1.9287780e+03 1.9220590e+03 1.9108376e+03 1.8968622e+03 1.8813209e+03 1.8649570e+03 1.8481951e+03 1.8313030e+03 1.8144325e+03 1.7976747e+03 1.7810820e+03 1.7647004e+03 1.7485182e+03 1.7325936e+03 1.7168938e+03 1.7014259e+03 1.6861949e+03 1.6712031e+03 1.6564502e+03 1.6419333e+03 1.6276476e+03 1.6135881e+03 1.5997460e+03 1.5861124e+03 1.5726776e+03 1.5594443e+03 1.5464611e+03 1.5336565e+03 1.5210178e+03 1.5085820e+03 1.4963641e+03 1.4842873e+03 1.4723866e+03 1.4607049e+03 1.4491385e+03 1.4377678e+03 1.4265666e+03 1.4154576e+03 1.4046059e+03 1.3938321e+03 1.3832353e+03 1.3727818e+03 1.3624344e+03 1.3522851e+03 1.3421876e+03 1.3323207e+03 1.3225038e+03 1.3128671e+03 1.3033161e+03 1.2939041e+03 1.2846065e+03 1.2754121e+03 1.2663546e+03 1.2573709e+03 1.2485420e+03 1.2397631e+03 1.2311514e+03 1.2225701e+03 1.2141648e+03 1.2057747e+03 1.1975668e+03 1.1893673e+03 1.1813417e+03 1.1733262e+03 1.1654742e+03 1.1576353e+03 1.1499505e+03 1.1422797e+03 1.1347567e+03 1.1272468e+03 1.1198809e+03 1.1125253e+03 1.1053105e+03 1.0981019e+03 1.0910336e+03 1.0839657e+03 1.0770394e+03 1.0701132e+03 1.0633175e+03 1.0565284e+03 1.0498575e+03 1.0432014e+03 1.0366500e+03 1.0301228e+03 1.0236859e+03 1.0172838e+03 1.0109564e+03 1.0046752e+03 9.9845249e+02 9.9228905e+02 9.8616633e+02 9.8011641e+02 9.7408886e+02 9.6814947e+02 9.6221296e+02 9.5638137e+02 9.5054978e+02 9.4480530e+02 9.3907862e+02 9.3341461e+02 9.2779031e+02 9.2220306e+02 9.1667866e+02 9.1116452e+02 9.0573765e+02 9.0031079e+02 8.9496138e+02 8.8962973e+02 8.8434410e+02 8.7910542e+02 8.7388021e+02 8.6873245e+02 8.6358469e+02 8.5850553e+02 8.5344665e+02 8.4841945e+02 8.4344757e+02 8.3847569e+02 8.3358232e+02 8.2869545e+02 8.2384593e+02 8.1904233e+02 8.1423873e+02 8.0951153e+02 8.0478939e+02 8.0009841e+02 7.9545608e+02 7.9081374e+02 7.8623426e+02 7.8167007e+02 7.7711947e+02 7.7263175e+02 7.6814402e+02 7.6369446e+02 7.5928178e+02 7.5486910e+02 7.5051484e+02 7.4617566e+02 7.4183890e+02 7.3757183e+02 7.3330477e+02 7.2905337e+02 7.2485704e+02 7.2066071e+02 7.1648910e+02 7.1236232e+02 7.0823554e+02 7.0413820e+02 7.0007964e+02 6.9602109e+02 6.9199239e+02 6.8800110e+02 6.8400980e+02 6.8004410e+02 6.7611896e+02 6.7219382e+02 6.6828543e+02 6.6442537e+02 6.6056530e+02 6.5670869e+02 6.5291266e+02 6.4911664e+02 6.4532061e+02 6.4157342e+02 6.3784028e+02 6.3410714e+02 6.3040043e+02 6.2672898e+02 6.2305754e+02 6.1938679e+02 6.1577574e+02 6.1216469e+02 6.0855364e+02 6.0497372e+02 6.0142179e+02 5.9786986e+02 5.9431793e+02 5.9082231e+02 5.8732829e+02 5.8383427e+02 5.8035990e+02 5.7692258e+02 5.7348527e+02 5.7004795e+02 5.6664643e+02 5.6326477e+02 5.5988310e+02 5.5650144e+02 5.5316648e+02 5.4983950e+02 5.4651253e+02 5.4318555e+02 5.3991074e+02 5.3663755e+02 5.3336436e+02 5.3009117e+02 5.2687003e+02 5.2364991e+02 5.2042980e+02 5.1720969e+02 5.1403538e+02 5.1086775e+02 5.0770013e+02 5.0453250e+02 5.0139768e+02 4.9828210e+02 4.9516652e+02 4.9205094e+02 4.8894752e+02 4.8588375e+02 4.8281997e+02 4.7975619e+02 4.7669242e+02 4.7366300e+02 4.7065094e+02 4.6763889e+02 4.6462684e+02 4.6161478e+02 4.5864896e+02 4.5568878e+02 4.5272860e+02 4.4976843e+02 4.4680825e+02 4.4389424e+02 4.4098639e+02 4.3807855e+02 4.3517071e+02 4.3226287e+02 4.2938660e+02 4.2653183e+02 4.2367705e+02 4.2082227e+02 4.1796749e+02 4.1511272e+02 4.1231100e+02 4.0951059e+02 4.0671018e+02 4.0390978e+02 4.0110937e+02 3.9830897e+02 3.9556142e+02 3.9281739e+02 3.9007336e+02 3.8732933e+02 3.8458530e+02 3.8184127e+02 3.7911869e+02 3.7643388e+02 3.7374907e+02 3.7106426e+02 3.6837945e+02 3.6569464e+02 3.6300983e+02 3.6033182e+02 3.5771011e+02 3.5508840e+02 3.5246669e+02 3.4984499e+02 3.4722328e+02 3.4460157e+02 3.4197986e+02 3.3935840e+02 3.3680362e+02 3.3424883e+02 3.3169405e+02 3.2913926e+02 3.2658447e+02 3.2402969e+02 3.2147490e+02 3.1892012e+02 3.1637578e+02 3.1388958e+02 3.1140338e+02 3.0891718e+02 3.0643099e+02 3.0394479e+02 3.0145859e+02 2.9897239e+02 2.9648620e+02 2.9400000e+02)
    300 (2.9400000e+02 4.6012887e+02 6.1796906e+02 7.6569803e+02 9.0189006e+02 1.0242216e+03 1.1357233e+03 1.2374650e+03 1.3301105e+03 1.4142550e+03 1.4907935e+03 1.5608733e+03 1.6248360e+03 1.6832019e+03 1.7357799e+03 1.7814576e+03 1.8189131e+03 1.8464636e+03 1.8636748e+03 1.8712475e+03 1.8710448e+03 1.8651023e+03 1.8552361e+03 1.8428426e+03 1.8288845e+03 1.8139993e+03 1.7985917e+03 1.7829332e+03 1.7671849e+03 1.7514556e+03 1.7358123e+03 1.7202957e+03 1.7049501e+03 1.6897718e+03 1.6748021e+03 1.6600232e+03 1.6454434e+03 1.6310709e+03 1.6169086e+03 1.6029583e+03 1.5892183e+03 1.5756876e+03 1.5623606e+03 1.5492321e+03 1.5362956e+03 1.5235434e+03 1.5109671e+03 1.4985984e+03 1.4864287e+03 1.4744195e+03 1.4625620e+03 1.4509066e+03 1.4394290e+03 1.4280848e+03 1.4169006e+03 1.4059150e+03 1.3950446e+03 1.3843238e+03 1.3737887e+03 1.3633521e+03 1.3530814e+03 1.3429572e+03 1.3329181e+03 1.3230805e+03 1.3133323e+03 1.3037041e+03 1.2942341e+03 1.2848313e+03 1.2756047e+03 1.2664609e+03 1.2574279e+03 1.2485319e+03 1.2396894e+03 1.2310270e+03 1.2224148e+03 1.2139306e+03 1.2055393e+03 1.1972279e+03 1.1890468e+03 1.1809035e+03 1.1729237e+03 1.1649780e+03 1.1571563e+03 1.1493985e+03 1.1417315e+03 1.1341536e+03 1.1266361e+03 1.1192301e+03 1.1118582e+03 1.1046170e+03 1.0973954e+03 1.0903035e+03 1.0832363e+03 1.0762781e+03 1.0693579e+03 1.0625301e+03 1.0557511e+03 1.0490505e+03 1.0424066e+03 1.0358299e+03 1.0293149e+03 1.0228582e+03 1.0164665e+03 1.0101275e+03 1.0038538e+03 9.9762924e+02 9.9146795e+02 9.8535435e+02 9.7930008e+02 9.7329464e+02 9.6734268e+02 9.6144317e+02 9.5558896e+02 9.4979270e+02 9.4403176e+02 9.3833657e+02 9.3266468e+02 9.2706821e+02 9.2148119e+02 9.1598148e+02 9.1048177e+02 9.0507029e+02 8.9966515e+02 8.9432870e+02 8.8901622e+02 8.8375100e+02 8.7852912e+02 8.7333146e+02 8.6819841e+02 8.6306537e+02 8.5801864e+02 8.5297251e+02 8.4798451e+02 8.4302360e+02 8.3809093e+02 8.3321347e+02 8.2833600e+02 8.2353726e+02 8.1874173e+02 8.1399018e+02 8.0927483e+02 8.0456742e+02 7.9993051e+02 7.9529359e+02 7.9070438e+02 7.8614436e+02 7.8159245e+02 7.7710748e+02 7.7262251e+02 7.6817907e+02 7.6376734e+02 7.5935561e+02 7.5501531e+02 7.5067504e+02 7.4636305e+02 7.4209249e+02 7.3782193e+02 7.3360471e+02 7.2940211e+02 7.2520855e+02 7.2107226e+02 7.1693597e+02 7.1282943e+02 7.0875794e+02 7.0468646e+02 7.0066249e+02 6.9665423e+02 6.9264676e+02 6.8870025e+02 6.8475373e+02 6.8082178e+02 6.7693561e+02 6.7304944e+02 6.6918890e+02 6.6536178e+02 6.6153466e+02 6.5774154e+02 6.5397218e+02 6.5020282e+02 6.4647323e+02 6.4276041e+02 6.3904758e+02 6.3537780e+02 6.3172035e+02 6.2806290e+02 6.2444921e+02 6.2084600e+02 6.1724279e+02 6.1368157e+02 6.1013151e+02 6.0658146e+02 6.0306917e+02 5.9957136e+02 5.9607355e+02 5.9260661e+02 5.8916007e+02 5.8571353e+02 5.8228834e+02 5.7889220e+02 5.7549606e+02 5.7210891e+02 5.6876241e+02 5.6541591e+02 5.6206940e+02 5.5876538e+02 5.5546786e+02 5.5217034e+02 5.4889579e+02 5.4564660e+02 5.4239741e+02 5.3914825e+02 5.3594686e+02 5.3274547e+02 5.2954408e+02 5.2636330e+02 5.2320915e+02 5.2005499e+02 5.1690084e+02 5.1378298e+02 5.1067573e+02 5.0756848e+02 5.0446134e+02 5.0140057e+02 4.9833981e+02 4.9527904e+02 4.9222339e+02 4.8920896e+02 4.8619454e+02 4.8318011e+02 4.8016957e+02 4.7720138e+02 4.7423318e+02 4.7126498e+02 4.6829679e+02 4.6537052e+02 4.6244854e+02 4.5952657e+02 4.5660459e+02 4.5370858e+02 4.5083314e+02 4.4795770e+02 4.4508226e+02 4.4220704e+02 4.3937855e+02 4.3655005e+02 4.3372155e+02 4.3089306e+02 4.2807474e+02 4.2529392e+02 4.2251311e+02 4.1973229e+02 4.1695148e+02 4.1417790e+02 4.1144574e+02 4.0871357e+02 4.0598141e+02 4.0324924e+02 4.0051707e+02 3.9782313e+02 3.9514094e+02 3.9245876e+02 3.8977657e+02 3.8709438e+02 3.8441220e+02 3.8178161e+02 3.7915121e+02 3.7652082e+02 3.7389043e+02 3.7126004e+02 3.6862965e+02 3.6604023e+02 3.6346404e+02 3.6088786e+02 3.5831167e+02 3.5573549e+02 3.5315930e+02 3.5058312e+02 3.4806058e+02 3.4554133e+02 3.4302208e+02 3.4050283e+02 3.3798358e+02 3.3546433e+02 3.3294508e+02 3.3045698e+02 3.2799637e+02 3.2553576e+02 3.2307515e+02 3.2061454e+02 3.1815393e+02 3.1569332e+02 3.1323271e+02 3.1081692e+02 3.0841451e+02 3.0601209e+02 3.0360967e+02 3.0120725e+02 2.9880484e+02 2.9640242e+02 2.9400000e+02)
)

// *********************** vim: set ft=cpp et sw=4 : *********************** //
