FoamFile
{
    version     2.0;
    format      ascii;
    class       scalarList;
    object      z;
}

// * * * * * * * * * * * * * * * * * * * * * * * * * * * * * * * * * * * * * //

300
(
    0.0000000e+00
    3.3444816e-03
    6.6889632e-03
    1.0033445e-02
    1.3377926e-02
    1.6722408e-02
    2.0066890e-02
    2.3411371e-02
    2.6755853e-02
    3.0100334e-02
    3.3444816e-02
    3.6789298e-02
    4.0133779e-02
    4.3478261e-02
    4.6822742e-02
    5.0167224e-02
    5.3511706e-02
    5.6856187e-02
    6.0200669e-02
    6.3545151e-02
    6.6889632e-02
    7.0234114e-02
    7.3578595e-02
    7.6923077e-02
    8.0267559e-02
    8.3612040e-02
    8.6956522e-02
    9.0301003e-02
    9.3645485e-02
    9.6989967e-02
    1.0033445e-01
    1.0367893e-01
    1.0702341e-01
    1.1036789e-01
    1.1371237e-01
    1.1705686e-01
    1.2040134e-01
    1.2374582e-01
    1.2709030e-01
    1.3043478e-01
    1.3377926e-01
    1.3712375e-01
    1.4046823e-01
    1.4381271e-01
    1.4715719e-01
    1.5050167e-01
    1.5384615e-01
    1.5719064e-01
    1.6053512e-01
    1.6387960e-01
    1.6722408e-01
    1.7056856e-01
    1.7391304e-01
    1.7725753e-01
    1.8060201e-01
    1.8394649e-01
    1.8729097e-01
    1.9063545e-01
    1.9397993e-01
    1.9732441e-01
    2.0066890e-01
    2.0401338e-01
    2.0735786e-01
    2.1070234e-01
    2.1404682e-01
    2.1739130e-01
    2.2073579e-01
    2.2408027e-01
    2.2742475e-01
    2.3076923e-01
    2.3411371e-01
    2.3745819e-01
    2.4080268e-01
    2.4414716e-01
    2.4749164e-01
    2.5083612e-01
    2.5418060e-01
    2.5752508e-01
    2.6086957e-01
    2.6421405e-01
    2.6755853e-01
    2.7090301e-01
    2.7424749e-01
    2.7759197e-01
    2.8093645e-01
    2.8428094e-01
    2.8762542e-01
    2.9096990e-01
    2.9431438e-01
    2.9765886e-01
    3.0100334e-01
    3.0434783e-01
    3.0769231e-01
    3.1103679e-01
    3.1438127e-01
    3.1772575e-01
    3.2107023e-01
    3.2441472e-01
    3.2775920e-01
    3.3110368e-01
    3.3444816e-01
    3.3779264e-01
    3.4113712e-01
    3.4448161e-01
    3.4782609e-01
    3.5117057e-01
    3.5451505e-01
    3.5785953e-01
    3.6120401e-01
    3.6454849e-01
    3.6789298e-01
    3.7123746e-01
    3.7458194e-01
    3.7792642e-01
    3.8127090e-01
    3.8461538e-01
    3.8795987e-01
    3.9130435e-01
    3.9464883e-01
    3.9799331e-01
    4.0133779e-01
    4.0468227e-01
    4.0802676e-01
    4.1137124e-01
    4.1471572e-01
    4.1806020e-01
    4.2140468e-01
    4.2474916e-01
    4.2809365e-01
    4.3143813e-01
    4.3478261e-01
    4.3812709e-01
    4.4147157e-01
    4.4481605e-01
    4.4816054e-01
    4.5150502e-01
    4.5484950e-01
    4.5819398e-01
    4.6153846e-01
    4.6488294e-01
    4.6822742e-01
    4.7157191e-01
    4.7491639e-01
    4.7826087e-01
    4.8160535e-01
    4.8494983e-01
    4.8829431e-01
    4.9163880e-01
    4.9498328e-01
    4.9832776e-01
    5.0167224e-01
    5.0501672e-01
    5.0836120e-01
    5.1170569e-01
    5.1505017e-01
    5.1839465e-01
    5.2173913e-01
    5.2508361e-01
    5.2842809e-01
    5.3177258e-01
    5.3511706e-01
    5.3846154e-01
    5.4180602e-01
    5.4515050e-01
    5.4849498e-01
    5.5183946e-01
    5.5518395e-01
    5.5852843e-01
    5.6187291e-01
    5.6521739e-01
    5.6856187e-01
    5.7190635e-01
    5.7525084e-01
    5.7859532e-01
    5.8193980e-01
    5.8528428e-01
    5.8862876e-01
    5.9197324e-01
    5.9531773e-01
    5.9866221e-01
    6.0200669e-01
    6.0535117e-01
    6.0869565e-01
    6.1204013e-01
    6.1538462e-01
    6.1872910e-01
    6.2207358e-01
    6.2541806e-01
    6.2876254e-01
    6.3210702e-01
    6.3545151e-01
    6.3879599e-01
    6.4214047e-01
    6.4548495e-01
    6.4882943e-01
    6.5217391e-01
    6.5551839e-01
    6.5886288e-01
    6.6220736e-01
    6.6555184e-01
    6.6889632e-01
    6.7224080e-01
    6.7558528e-01
    6.7892977e-01
    6.8227425e-01
    6.8561873e-01
    6.8896321e-01
    6.9230769e-01
    6.9565217e-01
    6.9899666e-01
    7.0234114e-01
    7.0568562e-01
    7.0903010e-01
    7.1237458e-01
    7.1571906e-01
    7.1906355e-01
    7.2240803e-01
    7.2575251e-01
    7.2909699e-01
    7.3244147e-01
    7.3578595e-01
    7.3913043e-01
    7.4247492e-01
    7.4581940e-01
    7.4916388e-01
    7.5250836e-01
    7.5585284e-01
    7.5919732e-01
    7.6254181e-01
    7.6588629e-01
    7.6923077e-01
    7.7257525e-01
    7.7591973e-01
    7.7926421e-01
    7.8260870e-01
    7.8595318e-01
    7.8929766e-01
    7.9264214e-01
    7.9598662e-01
    7.9933110e-01
    8.0267559e-01
    8.0602007e-01
    8.0936455e-01
    8.1270903e-01
    8.1605351e-01
    8.1939799e-01
    8.2274247e-01
    8.2608696e-01
    8.2943144e-01
    8.3277592e-01
    8.3612040e-01
    8.3946488e-01
    8.4280936e-01
    8.4615385e-01
    8.4949833e-01
    8.5284281e-01
    8.5618729e-01
    8.5953177e-01
    8.6287625e-01
    8.6622074e-01
    8.6956522e-01
    8.7290970e-01
    8.7625418e-01
    8.7959866e-01
    8.8294314e-01
    8.8628763e-01
    8.8963211e-01
    8.9297659e-01
    8.9632107e-01
    8.9966555e-01
    9.0301003e-01
    9.0635452e-01
    9.0969900e-01
    9.1304348e-01
    9.1638796e-01
    9.1973244e-01
    9.2307692e-01
    9.2642140e-01
    9.2976589e-01
    9.3311037e-01
    9.3645485e-01
    9.3979933e-01
    9.4314381e-01
    9.4648829e-01
    9.4983278e-01
    9.5317726e-01
    9.5652174e-01
    9.5986622e-01
    9.6321070e-01
    9.6655518e-01
    9.6989967e-01
    9.7324415e-01
    9.7658863e-01
    9.7993311e-01
    9.8327759e-01
    9.8662207e-01
    9.8996656e-01
    9.9331104e-01
    9.9665552e-01
    1.0000000e+00
)

// *********************** vim: set ft=cpp et sw=4 : *********************** //
