/*--------------------------------*- C++ -*----------------------------------*\
| =========                 |                                                 |
| \\      /  F ield         | OpenFOAM: The Open Source CFD Toolbox           |
|  \\    /   O peration     | Version:  1.7.1                                 |
|   \\  /    A nd           | Web:      www.OpenFOAM.com                      |
|    \\/     M anipulation  |                                                 |
\*---------------------------------------------------------------------------*/
FoamFile
{
    version     2.0;
    format      ascii;
    class       dictionary;
    object      blockMeshDict;
}
// * * * * * * * * * * * * * * * * * * * * * * * * * * * * * * * * * * * * * //

convertToMeters 1;

sx 0.8;

vertices
(
    (0.0  0.0  0.0)   //  0
    (6.0  0.0  0.0)   //  1
    (6.0  $sx  0.0)   //  2
    (0.0  $sx  0.0)   //  3
    (0.0  0.0  $sx)   //  4
    (6.0  0.0  $sx)   //  5
    (6.0  $sx  $sx)   //  6
    (0.0  $sx  $sx)   //  7
);

blocks
(
    hex (0 1 2 3 4 5 6  7) (20 1 1) simpleGrading (1 1 1)
);

edges
(
);

/*
               5                                4
             +--------------------------------+
            /.                               /|
           / . 3                            / | 2
          /  +............................./..+      y
         /  ..                            /  /|      |
        /  . . 0                         /  / | 1    |
       /  .  +........................../../..+      +-----x
      +--------------------------------+  /  /      /
   11 | .  .                        10 | /  /      z
      |.  .                            |/  /
      +--------------------------------+  /
    9 | .                            8 | /
      |.                               |/
      +--------------------------------+
    6                                7

 */

patches
(
    patch inlet
    (
        (0 4 7 3)
    )
    patch outlet
    (
        (1 2 6 5)
    )
    patch walls
    (
        (0 1 5 4)
        (2 3 7 6)
        (1 0 3 2)
        (5 4 7 6)
    )
);

mergePatchPairs
(
);

// ************************************************************************* //
