FoamFile
{
    version     2.0;
    format      ascii;
    class       scalarListList;
    object      cdot;
}

// * * * * * * * * * * * * * * * * * * * * * * * * * * * * * * * * * * * * * //

101
(
    300 (0 0 0 0 0 0 0 0 0 0 0 0 0 0 0 0 0 0 0 0 0 0 0 0 0 0 0 0 0 0 0 0 0 0 0 0 0 0 0 0 0 0 0 0 0 0 0 0 0 0 0 0 0 0 0 0 0 0 0 0 0 0 0 0 0 0 0 0 0 0 0 0 0 0 0 0 0 0 0 0 0 0 0 0 0 0 0 0 0 0 0 0 0 0 0 0 0 0 0 0 0 0 0 0 0 0 0 0 0 0 0 0 0 0 0 0 0 0 0 0 0 0 0 0 0 0 0 0 0 0 0 0 0 0 0 0 0 0 0 0 0 0 0 0 0 0 0 0 0 0 0 0 0 0 0 0 0 0 0 0 0 0 0 0 0 0 0 0 0 0 0 0 0 0 0 0 0 0 0 0 0 0 0 0 0 0 0 0 0 0 0 0 0 0 0 0 0 0 0 0 0 0 0 0 0 0 0 0 0 0 0 0 0 0 0 0 0 0 0 0 0 0 0 0 0 0 0 0 0 0 0 0 0 0 0 0 0 0 0 0 0 0 0 0 0 0 0 0 0 0 0 0 0 0 0 0 0 0 0 0 0 0 0 0 0 0 0 0 0 0 0 0 0 0 0 0 0 0 0 0 0 0 0 0 0 0 0 0 0 0 0 0 0 0 0 0 0 0 0 0)
    300 (6.463298e-07 0.7516115 1.459986 2.143235 2.815176 3.484448 4.154309 4.824994 5.495282 6.163486 6.827986 7.487436 8.140817 8.787401 9.426701 10.05841 10.68235 11.29844 11.90665 12.50702 13.09959 13.68442 14.2616 14.8312 15.39332 15.94803 16.49542 17.03557 17.56856 18.09447 18.61339 19.12537 19.63049 20.12883 20.62044 21.1054 21.58376 22.0556 22.52096 22.97991 23.43249 23.87878 24.31882 24.75265 25.18034 25.60193 26.01747 26.427 26.83057 27.22823 27.62001 28.00596 28.38611 28.76052 29.12921 29.49222 29.8496 30.20137 30.54756 30.88823 31.22339 31.55308 31.87732 32.19616 32.50962 32.81773 33.12051 33.418 33.71022 33.9972 34.27896 34.55552 34.82692 35.09317 35.35429 35.61032 35.86127 36.10716 36.34801 36.58384 36.81468 37.04053 37.26143 37.47739 37.68842 37.89454 38.09577 38.29212 38.48362 38.67027 38.8521 39.02911 39.20132 39.36875 39.53141 39.6893 39.84245 39.99087 40.13457 40.27356 40.40785 40.53746 40.66239 40.78266 40.89827 41.00924 41.11558 41.2173 41.31441 41.40691 41.49482 41.57815 41.6569 41.73108 41.8007 41.86578 41.92631 41.98232 42.03379 42.08075 42.1232 42.16115 42.19461 42.22357 42.24807 42.26808 42.28364 42.29474 42.30139 42.30359 42.30137 42.29471 42.28363 42.26814 42.24824 42.22395 42.19526 42.16218 42.12473 42.08291 42.03672 41.98618 41.93129 41.87206 41.80849 41.7406 41.66839 41.59187 41.51105 41.42593 41.33653 41.24285 41.1449 41.04269 40.93623 40.82553 40.7106 40.59144 40.46807 40.34049 40.20872 40.07277 39.93265 39.78837 39.63993 39.48736 39.33066 39.16984 39.00493 38.83592 38.66284 38.48569 38.3045 38.11927 37.93002 37.73677 37.53953 37.33831 37.13314 36.92403 36.71099 36.49405 36.27322 36.04853 35.81999 35.58762 35.35144 35.11147 34.86774 34.62027 34.36908 34.1142 33.85564 33.59344 33.32762 33.0582 32.78523 32.50871 32.22869 31.94518 31.65823 31.36787 31.07412 30.77702 30.4766 30.1729 29.86596 29.55582 29.24251 28.92608 28.60656 28.284 27.95844 27.62993 27.29852 26.96424 26.62716 26.28731 25.94476 25.59956 25.25175 24.90141 24.54858 24.19332 23.83571 23.4758 23.11366 22.74935 22.38295 22.01453 21.64415 21.27191 20.89788 20.52213 20.14475 19.76583 19.38546 19.00373 18.62073 18.23656 17.85132 17.46511 17.07804 16.69023 16.30178 15.91281 15.52345 15.13382 14.74404 14.35426 13.96461 13.57523 13.18627 12.79789 12.41023 12.02348 11.63778 11.25332 10.87028 10.48885 10.10921 9.731579 9.356154 8.983169 8.612839 8.245393 7.881073 7.52013 7.162824 6.809425 6.460214 6.115483 5.775536 5.440689 5.111272 4.787627 4.470111 4.159098 3.854975 3.558148 3.269041 2.988096 2.715775 2.452562 2.198963 1.955508 1.722796 1.501599 1.292073 1.095221 0.9115998 0.7419558 0.5871201 0.4479337 0.3251906 0.2199002 0.1331136 0 0 0)
    300 (1.056959e-06 2.132655 4.325271 6.595902 8.949362 11.36336 13.81571 16.28747 18.76507 21.23974 23.70617 26.16132 28.60351 31.0319 33.4461 35.84599 38.23157 40.60293 42.96017 45.30341 47.6328 49.94845 52.25047 54.53898 56.81404 59.0758 61.32434 63.55975 65.7821 67.99146 70.1879 72.37147 74.54223 76.70023 78.8455 80.97809 83.09803 85.20533 87.30004 89.38217 91.45172 93.50872 95.55317 97.58507 99.60442 101.6112 103.6055 105.5871 107.5562 109.5126 111.4565 113.3876 115.3061 117.2118 119.1048 120.985 122.8524 124.7068 126.5484 128.377 130.1925 131.995 133.7843 135.5604 137.3233 139.0728 140.809 142.5317 144.2408 145.9363 147.6182 149.2863 150.9405 152.5809 154.2072 155.8194 157.4175 159.0013 160.5707 162.1256 163.6661 165.1918 166.7029 168.1991 169.6803 171.1465 172.5975 174.0333 175.4537 176.8587 178.248 179.6217 180.9796 182.3215 183.6474 184.9571 186.2506 187.5276 188.7882 190.0321 191.2593 192.4696 193.6628 194.839 195.9979 197.1394 198.2634 199.3697 200.4583 201.5289 202.5816 203.616 204.6322 205.6299 206.609 207.5695 208.5111 209.4337 210.3372 211.2214 212.0862 212.9316 213.7572 214.563 215.3489 216.1146 216.8601 217.5853 218.2899 218.9738 219.6369 220.2791 220.9002 221.5 222.0785 222.6354 223.1707 223.6842 224.1757 224.6451 225.0922 225.517 225.9193 226.2989 226.6556 226.9894 227.3001 227.5876 227.8517 228.0922 228.3091 228.5021 228.6713 228.8163 228.9371 229.0335 229.1054 229.1527 229.1752 229.1728 229.1453 229.0927 229.0147 228.9113 228.7822 228.6275 228.447 228.2404 228.0078 227.7489 227.4637 227.152 226.8137 226.4488 226.057 225.6382 225.1924 224.7194 224.2191 223.6914 223.1362 222.5534 221.9429 221.3046 220.6384 219.9442 219.2218 218.4713 217.6925 216.8853 216.0497 215.1856 214.2928 213.3714 212.4213 211.4423 210.4344 209.3976 208.3318 207.237 206.113 204.96 203.7777 202.5663 201.3256 200.0557 198.7564 197.4279 196.0701 194.6829 193.2665 191.8207 190.3457 188.8414 187.3078 185.7451 184.1532 182.5321 180.882 179.2029 177.4949 175.7581 173.9925 172.1982 170.3754 168.5242 166.6447 164.737 162.8013 160.8377 158.8465 156.8278 154.7819 152.7088 150.6089 148.4824 146.3295 144.1506 141.9459 139.7157 137.4604 135.1803 132.8756 130.5469 128.1945 125.8189 123.4206 121 118.5576 116.0939 113.6096 111.1053 108.5814 106.0388 103.4781 100.9 98.3053 95.69487 93.06955 90.43025 87.77794 85.11363 82.43841 79.75342 77.05987 74.35904 71.6523 68.94109 66.22693 63.51147 60.79645 58.0837 55.37523 52.67313 49.97967 47.2973 44.62862 41.97645 39.34384 36.73408 34.15077 31.59779 29.07974 26.60123 24.16735 21.78386 19.45717 17.19447 15.0039 12.89468 10.87739 8.964286 7.169658 5.510372 4.009582 2.692736 1.230187 0 0 0)
    300 (1.301412e-06 3.618471 7.654775 11.99808 16.56371 21.25349 26.00968 30.79796 35.60004 40.40675 45.21369 50.01885 54.82132 59.62074 64.41695 69.20991 73.9996 78.78602 83.56914 88.34896 93.12541 97.89846 102.6681 107.4341 112.1966 116.9553 121.7103 126.4613 131.2082 135.9509 140.6893 145.4231 150.1523 154.8766 159.5958 164.3098 169.0184 173.7212 178.4182 183.1091 187.7936 192.4715 197.1425 201.8063 206.4628 211.1115 215.7523 220.3849 225.0088 229.6239 234.2298 238.8262 243.4128 247.9892 252.5551 257.1101 261.6539 266.1862 270.7065 275.2146 279.7099 284.1922 288.6611 293.1162 297.557 301.9831 306.3943 310.7899 315.1697 319.5332 323.88 328.2096 332.5216 336.8156 341.0911 345.3477 349.5848 353.8021 357.9991 362.1753 366.3303 370.4635 374.5745 378.6627 382.7278 386.7692 390.7864 394.7789 398.7462 402.6878 406.6032 410.4919 414.3533 418.1869 421.9922 425.7687 429.5158 433.233 436.9198 440.5756 444.1998 447.792 451.3515 454.8779 458.3705 461.8287 465.2522 468.6401 471.9921 475.3075 478.5857 481.8262 485.0284 488.1917 491.3155 494.3992 497.4423 500.4442 503.4042 506.3218 509.1963 512.0273 514.814 517.5559 520.2523 522.9027 525.5065 528.063 530.5716 533.0317 535.4428 537.8042 540.1152 542.3753 544.5838 546.7402 548.8438 550.8939 552.89 554.8315 556.7176 558.5479 560.3217 562.0382 563.6971 565.2975 566.8389 568.3206 569.7421 571.1027 572.4017 573.6387 574.8128 575.9236 576.9704 577.9525 578.8695 579.7205 580.5051 581.2226 581.8723 582.4537 582.9661 583.4091 583.7818 584.0839 584.3146 584.4734 584.5596 584.5727 584.5121 584.3772 584.1674 583.8822 583.5209 583.083 582.568 581.9752 581.3041 580.5542 579.7249 578.8157 577.8261 576.7554 575.6032 574.369 573.0523 571.6525 570.1692 568.6019 566.9501 565.2133 563.3911 561.483 559.4886 557.4074 555.2391 552.9832 550.6392 548.2069 545.6859 543.0757 540.3761 537.5867 534.7071 531.7372 528.6765 525.5248 522.2819 518.9475 515.5213 512.0033 508.3931 504.6907 500.8959 497.0085 493.0286 488.9559 484.7905 480.5324 476.1815 471.7379 467.2016 462.5728 457.8515 453.038 448.1324 443.135 438.0461 432.8658 427.5947 422.2331 416.7814 411.2402 405.6099 399.8913 394.0848 388.1913 382.2115 376.1462 369.9963 363.7628 357.4467 351.0492 344.5715 338.0148 331.3805 324.6701 317.8851 311.0273 304.0984 297.1003 290.0352 282.9051 275.7123 268.4591 261.1485 253.7832 246.3662 238.9007 231.3902 223.8382 216.2487 208.6258 200.974 193.2981 185.6031 177.8946 170.1783 162.4608 154.7486 147.0493 139.3708 131.7216 124.1111 116.5495 109.0478 101.6182 94.27382 87.02929 79.90062 72.90551 66.06354 59.39641 52.92934 46.69087 40.70875 35.01557 29.64657 24.63902 20.03078 15.85784 12.1507 8.929981 6.216302 3.99385 1.314114 0 0 0)
    300 (1.429731e-06 5.040571 11.07337 17.6762 24.61935 31.73917 38.95471 46.2269 53.54121 60.89152 68.27521 75.69111 83.1386 90.61727 98.12681 105.6669 113.2372 120.8374 128.4672 136.1261 143.8138 151.53 159.274 167.0456 174.8442 182.6694 190.5206 198.3974 206.2992 214.2254 222.1755 230.1488 238.1448 246.1629 254.2024 262.2627 270.343 278.4427 286.5611 294.6974 302.851 311.0211 319.2069 327.4076 335.6225 343.8508 352.0916 360.3441 368.6075 376.8808 385.1634 393.4542 401.7523 410.0569 418.3671 426.6818 435.0002 443.3214 451.6443 459.9679 468.2914 476.6136 484.9336 493.2503 501.5628 509.8699 518.1707 526.464 534.7488 543.024 551.2885 559.5413 567.7811 576.0068 584.2174 592.4117 600.5885 608.7467 616.8851 625.0026 633.0978 641.1697 649.217 657.2385 665.233 673.1993 681.136 689.042 696.9161 704.7568 712.563 720.3334 728.0667 735.7615 743.4167 751.0307 758.6025 766.1305 773.6135 781.0501 788.439 795.7788 803.0682 810.3058 817.4901 824.6199 831.6936 838.71 845.6677 852.5651 859.4009 866.1736 872.8819 879.5242 886.0992 892.6054 899.0414 905.4056 911.6966 917.913 924.0532 930.1159 936.0994 942.0023 947.8232 953.5604 959.2126 964.7782 970.2556 975.6434 980.9401 986.1441 991.2538 996.2679 1001.185 1006.003 1010.72 1015.336 1019.848 1024.255 1028.556 1032.748 1036.831 1040.803 1044.662 1048.406 1052.035 1055.546 1058.938 1062.209 1065.358 1068.384 1071.284 1074.057 1076.702 1079.217 1081.6 1083.85 1085.965 1087.944 1089.786 1091.488 1093.049 1094.467 1095.742 1096.871 1097.853 1098.686 1099.369 1099.9 1100.279 1100.502 1100.57 1100.479 1100.23 1099.82 1099.247 1098.512 1097.611 1096.544 1095.308 1093.904 1092.329 1090.581 1088.661 1086.565 1084.293 1081.844 1079.216 1076.408 1073.418 1070.246 1066.889 1063.348 1059.62 1055.705 1051.602 1047.308 1042.824 1038.148 1033.279 1028.216 1022.958 1017.505 1011.854 1006.006 999.9601 993.7146 987.2692 980.6231 973.7759 966.7267 959.4752 952.0208 944.3631 936.5016 928.4362 920.1665 911.6923 903.0136 894.1303 885.0425 875.7503 866.2538 856.5535 846.6496 836.5427 826.2334 815.7225 805.0106 794.0988 782.9882 771.68 760.1755 748.4762 736.5839 724.5003 712.2274 699.7674 687.1225 674.2951 661.2886 648.1059 634.7503 621.2256 607.5355 593.6842 579.6762 565.5164 551.21 536.7626 522.1803 507.4696 492.6373 477.6912 462.6393 447.4903 432.2536 416.9393 401.5585 386.1228 370.645 355.139 339.6197 324.1032 308.6072 293.1508 277.7547 262.4416 247.2363 232.1658 217.2595 202.5499 188.0721 173.8648 159.9699 146.4351 133.3113 120.6485 108.5018 96.92755 85.98149 75.71547 66.17366 57.38773 49.37194 42.11958 35.60208 29.77228 24.57177 19.95177 15.8494 12.22551 9.05818 6.337248 4.071715 0.3039276 0 0 0)
    300 (1.477906e-06 6.305749 14.34188 23.20465 32.49044 41.99675 51.64171 61.39619 71.24976 81.19707 91.2364 101.3667 111.5873 121.8974 132.2963 142.7833 153.3577 164.0187 174.7655 185.5972 196.513 207.512 218.5932 229.7558 240.9987 252.3208 263.7211 275.1986 286.7521 298.3804 310.0824 321.857 333.7027 345.6184 357.6027 369.6544 381.772 393.9542 406.1996 418.5068 430.8743 443.3006 455.7842 468.3236 480.9172 493.5634 506.2607 519.0073 531.8017 544.6422 557.527 570.4544 583.4228 596.4302 609.475 622.5553 635.6693 648.8151 661.9909 675.1948 688.4248 701.679 714.9555 728.2522 741.5672 754.8985 768.244 781.6017 794.9695 808.3453 821.727 835.1124 848.4995 861.886 875.2697 888.6486 902.0203 915.3826 928.7332 942.0699 955.3904 968.6924 981.9736 995.2315 1008.464 1021.668 1034.843 1047.984 1061.091 1074.16 1087.188 1100.175 1113.116 1126.01 1138.854 1151.646 1164.382 1177.061 1189.68 1202.236 1214.727 1227.149 1239.501 1251.78 1263.983 1276.108 1288.151 1300.11 1311.983 1323.766 1335.458 1347.054 1358.553 1369.951 1381.247 1392.436 1403.517 1414.486 1425.341 1436.078 1446.696 1457.19 1467.559 1477.799 1487.907 1497.881 1507.718 1517.414 1526.967 1536.374 1545.632 1554.737 1563.688 1572.481 1581.112 1589.579 1597.88 1606.01 1613.968 1621.749 1629.352 1636.772 1644.007 1651.054 1657.91 1664.571 1671.035 1677.299 1683.36 1689.213 1694.858 1700.289 1705.505 1710.502 1715.277 1719.828 1724.15 1728.241 1732.098 1735.718 1739.097 1742.234 1745.123 1747.764 1750.151 1752.283 1754.157 1755.769 1757.116 1758.195 1759.004 1759.539 1759.797 1759.776 1759.472 1758.883 1758.005 1756.835 1755.372 1753.611 1751.55 1749.186 1746.517 1743.539 1740.25 1736.647 1732.728 1728.489 1723.928 1719.042 1713.83 1708.288 1702.413 1696.204 1689.659 1682.773 1675.547 1667.976 1660.059 1651.794 1643.179 1634.211 1624.89 1615.212 1605.177 1594.781 1584.025 1572.906 1561.423 1549.575 1537.359 1524.776 1511.824 1498.503 1484.81 1470.747 1456.312 1441.506 1426.327 1410.776 1394.853 1378.559 1361.893 1344.858 1327.453 1309.68 1291.541 1273.036 1254.169 1234.942 1215.356 1195.416 1175.124 1154.483 1133.498 1112.173 1090.514 1068.526 1046.215 1023.588 1000.651 977.4133 953.8824 930.0676 905.9793 881.6282 857.0263 832.1865 807.1227 781.8503 756.3857 730.7471 704.9539 679.0274 652.991 626.8699 600.6916 574.4865 548.2873 522.1302 496.0547 470.1039 444.3252 418.7705 393.4968 368.566 344.0462 320.011 296.5401 273.7187 251.6384 230.4016 210.0959 190.8134 172.6389 155.6431 139.8759 125.3587 112.0802 99.99384 89.02156 79.06205 70.00268 61.73214 54.15097 47.17784 40.75282 34.83933 29.40153 24.42275 19.8938 15.81067 12.17332 8.98507 6.256904 3.998033 0.53107 0 0 0)
    300 (1.471772e-06 7.393246 17.3431 28.32064 39.79385 51.5458 63.5059 75.65515 87.98417 100.489 113.1682 126.0206 139.045 152.2406 165.606 179.1402 192.8421 206.7103 220.7436 234.9406 249.2999 263.8201 278.4996 293.3369 308.3303 323.4781 338.7788 354.2303 369.831 385.5789 401.4722 417.5087 433.6864 450.0033 466.4573 483.0461 499.7675 516.6193 533.5991 550.7046 567.9334 585.283 602.7509 620.3346 638.0315 655.8391 673.7546 691.7753 709.8986 728.1216 746.4416 764.8556 783.3608 801.9543 820.6332 839.3943 858.2347 877.1513 896.141 915.2007 934.3272 953.5173 972.7677 992.0752 1011.436 1030.848 1050.307 1069.809 1089.352 1108.931 1128.544 1148.186 1167.855 1187.546 1207.255 1226.981 1246.718 1266.462 1286.211 1305.96 1325.706 1345.445 1365.172 1384.885 1404.579 1424.25 1443.894 1463.507 1483.086 1502.626 1522.122 1541.572 1560.971 1580.315 1599.599 1618.819 1637.972 1657.053 1676.057 1694.98 1713.819 1732.568 1751.224 1769.781 1788.236 1806.584 1824.821 1842.942 1860.942 1878.817 1896.563 1914.175 1931.648 1948.978 1966.16 1983.189 2000.061 2016.772 2033.315 2049.687 2065.883 2081.898 2097.727 2113.366 2128.809 2144.052 2159.09 2173.917 2188.53 2202.923 2217.091 2231.029 2244.732 2258.196 2271.415 2284.384 2297.098 2309.553 2321.742 2333.661 2345.305 2356.669 2367.748 2378.536 2389.029 2399.22 2409.106 2418.681 2427.939 2436.876 2445.486 2453.765 2461.706 2469.305 2476.557 2483.456 2489.996 2496.174 2501.983 2507.419 2512.476 2517.149 2521.432 2525.321 2528.81 2531.895 2534.569 2536.828 2538.666 2540.079 2541.061 2541.608 2541.713 2541.372 2540.58 2539.331 2537.621 2535.445 2532.798 2529.674 2526.07 2521.979 2517.397 2512.32 2506.743 2500.66 2494.067 2486.961 2479.335 2471.185 2462.508 2453.299 2443.554 2433.267 2422.436 2411.056 2399.123 2386.634 2373.584 2359.971 2345.789 2331.037 2315.711 2299.808 2283.324 2266.257 2248.605 2230.364 2211.533 2192.109 2172.091 2151.477 2130.265 2108.454 2086.044 2063.033 2039.422 2015.209 1990.397 1964.985 1938.974 1912.366 1885.163 1857.366 1828.98 1800.006 1770.45 1740.316 1709.608 1678.333 1646.498 1614.11 1581.176 1547.707 1513.713 1479.205 1444.195 1408.698 1372.726 1336.298 1299.433 1262.152 1224.475 1186.429 1148.038 1109.334 1070.347 1031.114 991.6742 952.0694 912.3476 872.5606 832.7661 793.0273 753.4142 714.004 674.8817 636.1411 597.8852 560.2269 523.2893 487.2058 452.1189 418.1793 385.5426 354.3649 324.7962 296.9715 271.0136 246.9932 224.9225 204.7684 186.4421 169.8058 154.6872 140.8977 128.2518 116.5818 105.7473 95.63786 86.17135 77.28921 68.95073 61.12782 53.80089 46.95687 40.59178 34.6909 29.24885 24.26214 19.72909 15.64978 12.02608 8.856165 6.16667 3.950901 0.633289 0 0 0)
    300 (1.429817e-06 8.286068 19.98749 32.86026 46.31094 60.12745 74.24332 88.64544 103.3292 118.2926 133.5339 149.0519 164.8452 180.9126 197.2524 213.8633 230.7436 247.8917 265.3058 282.984 300.9244 319.125 337.5835 356.2979 375.2657 394.4846 413.9521 433.6665 453.6246 473.8232 494.2595 514.9307 535.8339 556.9659 578.3236 599.9039 621.7034 643.7188 665.9467 688.3837 711.026 733.8702 756.9126 780.1492 803.5765 827.1903 850.9869 874.9621 899.112 923.4323 947.9188 972.5674 997.3736 1022.333 1047.442 1072.694 1098.087 1123.615 1149.274 1175.058 1200.964 1226.985 1253.119 1279.359 1305.7 1332.138 1358.667 1385.283 1411.98 1438.753 1465.597 1492.506 1519.475 1546.499 1573.572 1600.689 1627.844 1655.031 1682.246 1709.482 1736.733 1763.994 1791.26 1818.523 1845.779 1873.021 1900.244 1927.44 1954.606 1981.733 2008.816 2035.85 2062.827 2089.742 2116.587 2143.358 2170.047 2196.648 2223.155 2249.56 2275.859 2302.043 2328.107 2354.043 2379.846 2405.508 2431.023 2456.383 2481.583 2506.615 2531.472 2556.147 2580.634 2604.926 2629.014 2652.894 2676.556 2699.994 2723.202 2746.171 2768.895 2791.366 2813.577 2835.52 2857.189 2878.576 2899.674 2920.474 2940.971 2961.155 2981.02 3000.557 3019.761 3038.622 3057.133 3075.286 3093.075 3110.49 3127.525 3144.172 3160.422 3176.268 3191.703 3206.717 3221.304 3235.455 3249.163 3262.42 3275.217 3287.547 3299.402 3310.774 3321.654 3332.035 3341.908 3351.266 3360.101 3368.404 3376.167 3383.383 3390.043 3396.139 3401.663 3406.607 3410.964 3414.724 3417.879 3420.423 3422.346 3423.641 3424.3 3424.314 3423.676 3422.378 3420.412 3417.769 3414.443 3410.425 3405.707 3400.283 3394.143 3387.281 3379.689 3371.359 3362.283 3352.455 3341.867 3330.511 3318.382 3305.472 3291.774 3277.281 3261.987 3245.884 3228.968 3211.23 3192.666 3173.269 3153.034 3131.955 3110.026 3087.243 3063.6 3039.093 3013.717 2987.468 2960.343 2932.337 2903.448 2873.673 2843.009 2811.455 2779.008 2745.667 2711.433 2676.305 2640.283 2603.369 2565.564 2526.871 2487.294 2446.836 2405.502 2363.3 2320.235 2276.316 2231.552 2185.955 2139.537 2092.311 2044.293 1995.501 1945.954 1895.675 1844.687 1793.017 1740.697 1687.758 1634.239 1580.181 1525.63 1470.635 1415.255 1359.551 1303.594 1247.461 1191.238 1135.022 1078.92 1023.054 967.5551 912.5721 858.2678 804.8225 752.4336 701.3151 651.6968 603.8201 557.9326 514.2793 473.0896 434.5612 398.8419 366.0107 336.0629 308.9038 284.3539 262.1656 242.051 223.7113 206.8646 191.2679 176.7225 163.0649 150.1818 137.9921 126.4391 115.4826 105.0937 95.25064 85.93618 77.13634 68.83935 61.03523 53.7155 46.87303 40.50193 34.59747 29.16185 24.19115 19.68034 15.62923 12.03747 8.90238 6.242789 4.054755 2.343462 0 0 0)
    300 (1.365207e-06 8.955869 22.19051 36.75708 51.95608 67.61042 83.68201 100.1607 117.0429 134.3268 152.0108 170.0937 188.574 207.4502 226.7235 246.39 266.4468 286.892 307.7233 328.9385 350.5353 372.5109 394.8627 417.5878 440.6833 464.146 487.9727 512.1601 536.7045 561.6023 586.8496 612.4426 638.3774 664.6496 691.2551 718.1896 745.4484 773.0272 800.921 829.1252 857.6348 886.4449 915.5503 944.9457 974.626 1004.586 1034.819 1065.321 1096.086 1127.107 1158.38 1189.898 1221.654 1253.644 1285.86 1318.297 1350.948 1383.807 1416.867 1450.122 1483.564 1517.188 1550.986 1584.951 1619.077 1653.356 1687.782 1722.347 1757.044 1791.865 1826.804 1861.853 1897.003 1932.249 1967.581 2002.993 2038.476 2074.022 2109.625 2145.275 2180.965 2216.687 2252.432 2288.193 2323.96 2359.726 2395.482 2431.22 2466.932 2502.608 2538.24 2573.82 2609.338 2644.786 2680.154 2715.435 2750.619 2785.697 2820.66 2855.499 2890.204 2924.767 2959.178 2993.427 3027.506 3061.405 3095.114 3128.623 3161.924 3195.006 3227.86 3260.475 3292.843 3324.953 3356.795 3388.36 3419.636 3450.615 3481.286 3511.639 3541.663 3571.348 3600.685 3629.662 3658.269 3686.496 3714.332 3741.766 3768.789 3795.389 3821.555 3847.277 3872.544 3897.346 3921.671 3945.508 3968.846 3991.675 4013.984 4035.761 4056.994 4077.674 4097.789 4117.327 4136.277 4154.629 4172.37 4189.489 4205.975 4221.816 4237.002 4251.519 4265.358 4278.506 4290.952 4302.684 4313.691 4323.961 4333.482 4342.242 4350.231 4357.436 4363.846 4369.449 4374.233 4378.187 4381.299 4383.557 4384.949 4385.464 4385.091 4383.818 4381.632 4378.523 4374.479 4369.488 4363.54 4356.622 4348.724 4339.833 4329.94 4319.032 4307.099 4294.129 4280.112 4265.037 4248.894 4231.671 4213.359 4193.947 4173.426 4151.784 4129.013 4105.103 4080.044 4053.828 4026.446 3997.888 3968.148 3937.216 3905.085 3871.748 3837.198 3801.428 3764.433 3726.206 3686.743 3646.039 3604.09 3560.893 3516.445 3470.744 3423.79 3375.581 3326.12 3275.407 3223.445 3170.239 3115.789 3060.107 3003.201 2945.081 2885.759 2825.249 2763.567 2700.731 2636.764 2571.689 2505.533 2438.328 2370.109 2300.915 2230.792 2159.789 2087.962 2015.374 1942.098 1868.211 1793.805 1718.979 1643.848 1568.537 1493.191 1417.971 1343.057 1268.652 1194.984 1122.305 1050.897 981.0669 913.151 847.5065 784.5066 724.5269 667.9475 615.0952 566.1977 521.4013 480.7251 444.0488 411.1176 381.5683 354.9706 330.8744 308.8521 288.5289 269.5979 251.8215 235.0242 219.0808 203.9038 189.4321 175.6221 162.4416 149.8656 137.8735 126.4481 115.5803 105.2511 95.44799 86.16047 77.37901 69.09512 61.30126 53.99075 47.15776 40.79725 34.9049 29.47718 24.51122 20.00483 15.968 12.38846 9.260289 6.59386 4.387019 2.494296 0 0 0)
    300 (1.287255e-06 9.470452 24.02819 39.95335 56.63623 73.91538 91.74139 110.1087 129.0153 148.46 168.4419 188.9599 210.0128 231.5992 253.7175 276.3661 299.5428 323.2456 347.4719 372.2191 397.4845 423.2649 449.557 476.3582 503.6661 531.4747 559.78 588.5775 617.8629 647.6315 677.8784 708.5988 739.7875 771.4391 803.5481 836.1089 869.1156 902.5622 936.4427 970.7507 1005.48 1040.624 1076.175 1112.128 1148.474 1185.207 1222.32 1259.805 1297.655 1335.862 1374.419 1413.316 1452.547 1492.104 1531.977 1572.16 1612.642 1653.417 1694.474 1735.806 1777.403 1819.257 1861.358 1903.697 1946.265 1989.053 2032.051 2075.249 2118.638 2162.208 2205.95 2249.852 2293.906 2338.101 2382.427 2426.874 2471.43 2516.087 2560.833 2605.657 2650.549 2695.498 2740.494 2785.524 2830.579 2875.647 2920.716 2965.776 3010.815 3055.822 3100.785 3145.692 3190.533 3235.294 3279.964 3324.532 3368.985 3413.312 3457.499 3501.536 3545.408 3589.105 3632.614 3675.922 3719.017 3761.885 3804.515 3846.893 3889.007 3930.843 3972.388 4013.63 4054.555 4095.15 4135.401 4175.296 4214.82 4253.961 4292.703 4331.035 4368.942 4406.41 4443.426 4479.974 4516.043 4551.616 4586.68 4621.222 4655.225 4688.677 4721.563 4753.868 4785.577 4816.676 4847.151 4876.985 4906.166 4934.677 4962.504 4989.632 5016.046 5041.73 5066.669 5090.848 5114.253 5136.866 5158.674 5179.66 5199.809 5219.105 5237.534 5255.078 5271.723 5287.452 5302.25 5316.102 5328.99 5340.9 5351.815 5361.719 5370.596 5378.431 5385.208 5390.909 5395.519 5399.023 5401.404 5402.645 5402.732 5401.647 5399.374 5395.899 5391.204 5385.273 5378.092 5369.643 5359.911 5348.88 5336.534 5322.859 5307.837 5291.454 5273.694 5254.543 5233.984 5212.003 5188.586 5163.717 5137.382 5109.567 5080.258 5049.44 5017.102 4983.228 4947.807 4910.826 4872.273 4832.135 4790.4 4747.056 4702.096 4655.509 4607.286 4557.419 4505.9 4452.722 4397.879 4341.366 4283.178 4223.312 4161.766 4098.541 4033.636 3967.053 3898.798 3828.876 3757.294 3684.064 3609.198 3532.711 3454.622 3374.953 3293.73 3210.983 3126.746 3041.058 2953.966 2865.521 2775.783 2684.819 2592.706 2499.533 2405.397 2310.413 2214.709 2118.431 2021.745 1924.839 1827.929 1731.258 1635.103 1539.775 1445.628 1353.055 1262.495 1174.441 1089.424 1007.973 930.6387 857.9456 790.3558 728.2201 671.7304 620.882 575.4582 535.0463 499.085 466.9332 437.9413 411.512 387.1366 364.4104 343.028 322.7692 303.4801 285.0548 267.4203 250.525 234.3307 218.8098 203.9398 189.6954 176.0581 163.0114 150.5403 138.6311 127.2713 116.4492 106.1544 96.37713 87.10838 78.33994 70.06427 62.27445 54.9642 48.12779 41.76007 35.85933 30.42476 25.44697 20.9228 16.8494 13.21813 10.03712 7.301362 5.007819 2.171648 0 0 0)
    300 (1.202483e-06 9.792147 25.39131 42.46046 60.38682 79.03374 98.39251 118.4429 139.1795 160.6023 182.7111 205.5055 228.9848 253.1482 277.9943 303.5215 329.7281 356.6117 384.1699 412.3998 441.2984 470.8622 501.0875 531.9704 563.5066 595.6916 628.5204 661.9878 696.0886 730.8169 766.167 802.1326 838.7075 875.8864 913.6617 952.0255 990.9705 1030.489 1070.574 1111.217 1152.41 1194.144 1236.412 1279.204 1322.512 1366.327 1410.639 1455.439 1500.717 1546.464 1592.67 1639.324 1686.418 1733.939 1781.878 1830.224 1878.967 1928.094 1977.596 2027.461 2077.678 2128.235 2179.12 2230.322 2281.829 2333.629 2385.71 2438.059 2490.665 2543.514 2596.594 2649.893 2703.397 2757.093 2810.969 2865.011 2919.207 2973.542 3028.002 3082.576 3137.248 3192.005 3246.832 3301.717 3356.644 3411.6 3466.569 3521.539 3576.493 3631.417 3686.297 3741.118 3795.864 3850.521 3905.074 3959.506 4013.803 4067.949 4121.929 4175.727 4229.327 4282.714 4335.87 4388.781 4441.43 4493.801 4545.877 4597.641 4649.079 4700.171 4750.903 4801.257 4851.216 4900.762 4949.88 4998.551 5046.758 5094.485 5141.712 5188.423 5234.599 5280.224 5325.279 5369.746 5413.606 5456.843 5499.436 5541.369 5582.622 5623.177 5663.015 5702.117 5740.465 5778.04 5814.822 5850.792 5885.931 5920.22 5953.639 5986.168 6017.789 6048.482 6078.226 6107.002 6134.789 6161.569 6187.32 6212.023 6235.657 6258.202 6279.637 6299.942 6319.097 6337.081 6353.872 6369.451 6383.796 6396.887 6408.703 6419.222 6428.424 6436.287 6442.791 6447.914 6451.635 6453.933 6454.786 6454.173 6452.073 6448.465 6443.328 6436.639 6428.378 6418.524 6407.055 6393.95 6379.189 6362.749 6344.611 6324.752 6303.153 6279.793 6254.651 6227.703 6198.932 6168.318 6135.842 6101.484 6065.225 6027.045 5986.926 5944.849 5900.797 5854.751 5806.695 5756.612 5704.485 5650.3 5594.042 5535.695 5475.248 5412.687 5348.001 5281.179 5212.212 5141.093 5067.813 4992.369 4914.756 4834.973 4753.02 4668.899 4582.617 4494.18 4403.599 4310.889 4216.068 4119.159 4020.187 3919.186 3816.194 3711.257 3604.426 3495.763 3385.34 3273.238 3159.552 3044.392 2927.883 2810.17 2691.42 2571.824 2451.602 2331.007 2210.332 2089.909 1970.121 1851.406 1734.268 1619.284 1507.073 1398.328 1293.794 1194.245 1100.45 1013.119 932.8364 859.9834 794.6735 736.7117 685.6015 640.6037 600.8339 565.373 533.3623 504.0658 476.8966 451.4135 427.3003 404.3385 382.3803 361.3259 341.1066 321.6763 302.9978 285.0374 267.7697 251.1723 235.2251 219.9097 205.2093 191.1083 177.5922 164.6476 152.2619 140.4235 129.1212 118.345 108.0851 98.33253 89.07893 80.31639 72.03756 64.2356 56.90568 50.04627 43.64616 37.70033 32.20407 27.15302 22.54298 18.36986 14.62141 11.3126 8.429018 5.963615 2.848405 0 0 0)