FoamFile
{
    version     2.0;
    format      ascii;
    class       scalarList;
    object      cEq;
}

// * * * * * * * * * * * * * * * * * * * * * * * * * * * * * * * * * * * * * //

101
(
    0
    0.01161758
    0.02323448
    0.03484865
    0.04645503
    0.05804405
    0.06960039
    0.08110257
    0.09252308
    0.1038288
    0.1149815
    0.1259376
    0.1366467
    0.1470486
    0.1570661
    0.166592
    0.1754656
    0.1834348
    0.1901151
    0.195026
    0.1978655
    0.1988449
    0.198523
    0.197401
    0.1957956
    0.1938877
    0.1917817
    0.1895405
    0.1872041
    0.1847988
    0.1823428
    0.1798491
    0.1773269
    0.1747832
    0.1722231
    0.1696506
    0.1670685
    0.1644791
    0.1618843
    0.1592852
    0.1566829
    0.1540782
    0.1514717
    0.1488638
    0.1462549
    0.1436452
    0.141035
    0.1384243
    0.1358133
    0.1332021
    0.1305907
    0.1279791
    0.1253675
    0.1227559
    0.1201441
    0.1175324
    0.1149206
    0.1123088
    0.109697
    0.1070852
    0.1044734
    0.1018615
    0.0992497
    0.09663787
    0.09402604
    0.09141421
    0.08880237
    0.08619054
    0.08357871
    0.08096687
    0.07835504
    0.0757432
    0.07313137
    0.07051953
    0.0679077
    0.06529587
    0.06268403
    0.0600722
    0.05746036
    0.05484853
    0.05223669
    0.04962486
    0.04701302
    0.04440119
    0.04178935
    0.03917752
    0.03656568
    0.03395385
    0.03134202
    0.02873018
    0.02611835
    0.02350651
    0.02089468
    0.01828284
    0.01567101
    0.01305917
    0.01044734
    0.007835504
    0.005223669
    0.002611835
    0
)

// *********************** vim: set ft=cpp et sw=4 : *********************** //
