FoamFile
{
    version     2.0;
    format      ascii;
    class       scalarList;
    object      pv;
}

// * * * * * * * * * * * * * * * * * * * * * * * * * * * * * * * * * * * * * //

300
(
    0
    0.003344482
    0.006688963
    0.01003344
    0.01337793
    0.01672241
    0.02006689
    0.02341137
    0.02675585
    0.03010033
    0.03344482
    0.0367893
    0.04013378
    0.04347826
    0.04682274
    0.05016722
    0.05351171
    0.05685619
    0.06020067
    0.06354515
    0.06688963
    0.07023411
    0.0735786
    0.07692308
    0.08026756
    0.08361204
    0.08695652
    0.090301
    0.09364548
    0.09698997
    0.1003344
    0.1036789
    0.1070234
    0.1103679
    0.1137124
    0.1170569
    0.1204013
    0.1237458
    0.1270903
    0.1304348
    0.1337793
    0.1371237
    0.1404682
    0.1438127
    0.1471572
    0.1505017
    0.1538462
    0.1571906
    0.1605351
    0.1638796
    0.1672241
    0.1705686
    0.173913
    0.1772575
    0.180602
    0.1839465
    0.187291
    0.1906355
    0.1939799
    0.1973244
    0.2006689
    0.2040134
    0.2073579
    0.2107023
    0.2140468
    0.2173913
    0.2207358
    0.2240803
    0.2274247
    0.2307692
    0.2341137
    0.2374582
    0.2408027
    0.2441472
    0.2474916
    0.2508361
    0.2541806
    0.2575251
    0.2608696
    0.264214
    0.2675585
    0.270903
    0.2742475
    0.277592
    0.2809365
    0.2842809
    0.2876254
    0.2909699
    0.2943144
    0.2976589
    0.3010033
    0.3043478
    0.3076923
    0.3110368
    0.3143813
    0.3177258
    0.3210702
    0.3244147
    0.3277592
    0.3311037
    0.3344482
    0.3377926
    0.3411371
    0.3444816
    0.3478261
    0.3511706
    0.3545151
    0.3578595
    0.361204
    0.3645485
    0.367893
    0.3712375
    0.3745819
    0.3779264
    0.3812709
    0.3846154
    0.3879599
    0.3913043
    0.3946488
    0.3979933
    0.4013378
    0.4046823
    0.4080268
    0.4113712
    0.4147157
    0.4180602
    0.4214047
    0.4247492
    0.4280936
    0.4314381
    0.4347826
    0.4381271
    0.4414716
    0.4448161
    0.4481605
    0.451505
    0.4548495
    0.458194
    0.4615385
    0.4648829
    0.4682274
    0.4715719
    0.4749164
    0.4782609
    0.4816054
    0.4849498
    0.4882943
    0.4916388
    0.4949833
    0.4983278
    0.5016722
    0.5050167
    0.5083612
    0.5117057
    0.5150502
    0.5183946
    0.5217391
    0.5250836
    0.5284281
    0.5317726
    0.5351171
    0.5384615
    0.541806
    0.5451505
    0.548495
    0.5518395
    0.5551839
    0.5585284
    0.5618729
    0.5652174
    0.5685619
    0.5719064
    0.5752508
    0.5785953
    0.5819398
    0.5852843
    0.5886288
    0.5919732
    0.5953177
    0.5986622
    0.6020067
    0.6053512
    0.6086957
    0.6120401
    0.6153846
    0.6187291
    0.6220736
    0.6254181
    0.6287625
    0.632107
    0.6354515
    0.638796
    0.6421405
    0.6454849
    0.6488294
    0.6521739
    0.6555184
    0.6588629
    0.6622074
    0.6655518
    0.6688963
    0.6722408
    0.6755853
    0.6789298
    0.6822742
    0.6856187
    0.6889632
    0.6923077
    0.6956522
    0.6989967
    0.7023411
    0.7056856
    0.7090301
    0.7123746
    0.7157191
    0.7190635
    0.722408
    0.7257525
    0.729097
    0.7324415
    0.735786
    0.7391304
    0.7424749
    0.7458194
    0.7491639
    0.7525084
    0.7558528
    0.7591973
    0.7625418
    0.7658863
    0.7692308
    0.7725753
    0.7759197
    0.7792642
    0.7826087
    0.7859532
    0.7892977
    0.7926421
    0.7959866
    0.7993311
    0.8026756
    0.8060201
    0.8093645
    0.812709
    0.8160535
    0.819398
    0.8227425
    0.826087
    0.8294314
    0.8327759
    0.8361204
    0.8394649
    0.8428094
    0.8461538
    0.8494983
    0.8528428
    0.8561873
    0.8595318
    0.8628763
    0.8662207
    0.8695652
    0.8729097
    0.8762542
    0.8795987
    0.8829431
    0.8862876
    0.8896321
    0.8929766
    0.8963211
    0.8996656
    0.90301
    0.9063545
    0.909699
    0.9130435
    0.916388
    0.9197324
    0.9230769
    0.9264214
    0.9297659
    0.9331104
    0.9364548
    0.9397993
    0.9431438
    0.9464883
    0.9498328
    0.9531773
    0.9565217
    0.9598662
    0.9632107
    0.9665552
    0.9698997
    0.9732441
    0.9765886
    0.9799331
    0.9832776
    0.9866221
    0.9899666
    0.993311
    0.9966555
    1
)

// *********************** vim: set ft=cpp et sw=4 : *********************** //
