FoamFile
{
    version     2.0;
    format      ascii;
    class       scalarListList;
    object      rho;
}

// * * * * * * * * * * * * * * * * * * * * * * * * * * * * * * * * * * * * * //

101
(
    300 (0.3602475 0.3602475 0.3602475 0.3602475 0.3602475 0.3602475 0.3602475 0.3602475 0.3602475 0.3602475 0.3602475 0.3602475 0.3602475 0.3602475 0.3602475 0.3602475 0.3602475 0.3602475 0.3602475 0.3602475 0.3602475 0.3602475 0.3602475 0.3602475 0.3602475 0.3602475 0.3602475 0.3602475 0.3602475 0.3602475 0.3602475 0.3602475 0.3602475 0.3602475 0.3602475 0.3602475 0.3602475 0.3602475 0.3602475 0.3602475 0.3602475 0.3602475 0.3602475 0.3602475 0.3602475 0.3602475 0.3602475 0.3602475 0.3602475 0.3602475 0.3602475 0.3602475 0.3602475 0.3602475 0.3602475 0.3602475 0.3602475 0.3602475 0.3602475 0.3602475 0.3602475 0.3602475 0.3602475 0.3602475 0.3602475 0.3602475 0.3602475 0.3602475 0.3602475 0.3602475 0.3602475 0.3602475 0.3602475 0.3602475 0.3602475 0.3602475 0.3602475 0.3602475 0.3602475 0.3602475 0.3602475 0.3602475 0.3602475 0.3602475 0.3602475 0.3602475 0.3602475 0.3602475 0.3602475 0.3602475 0.3602475 0.3602475 0.3602475 0.3602475 0.3602475 0.3602475 0.3602475 0.3602475 0.3602475 0.3602475 0.3602475 0.3602475 0.3602475 0.3602475 0.3602475 0.3602475 0.3602475 0.3602475 0.3602475 0.3602475 0.3602475 0.3602475 0.3602475 0.3602475 0.3602475 0.3602475 0.3602475 0.3602475 0.3602475 0.3602475 0.3602475 0.3602475 0.3602475 0.3602475 0.3602475 0.3602475 0.3602475 0.3602475 0.3602475 0.3602475 0.3602475 0.3602475 0.3602475 0.3602475 0.3602475 0.3602475 0.3602475 0.3602475 0.3602475 0.3602475 0.3602475 0.3602475 0.3602475 0.3602475 0.3602475 0.3602475 0.3602475 0.3602475 0.3602475 0.3602475 0.3602475 0.3602475 0.3602475 0.3602475 0.3602475 0.3602475 0.3602475 0.3602475 0.3602475 0.3602475 0.3602475 0.3602475 0.3602475 0.3602475 0.3602475 0.3602475 0.3602475 0.3602475 0.3602475 0.3602475 0.3602475 0.3602475 0.3602475 0.3602475 0.3602475 0.3602475 0.3602475 0.3602475 0.3602475 0.3602475 0.3602475 0.3602475 0.3602475 0.3602475 0.3602475 0.3602475 0.3602475 0.3602475 0.3602475 0.3602475 0.3602475 0.3602475 0.3602475 0.3602475 0.3602475 0.3602475 0.3602475 0.3602475 0.3602475 0.3602475 0.3602475 0.3602475 0.3602475 0.3602475 0.3602475 0.3602475 0.3602475 0.3602475 0.3602475 0.3602475 0.3602475 0.3602475 0.3602475 0.3602475 0.3602475 0.3602475 0.3602475 0.3602475 0.3602475 0.3602475 0.3602475 0.3602475 0.3602475 0.3602475 0.3602475 0.3602475 0.3602475 0.3602475 0.3602475 0.3602475 0.3602475 0.3602475 0.3602475 0.3602475 0.3602475 0.3602475 0.3602475 0.3602475 0.3602475 0.3602475 0.3602475 0.3602475 0.3602475 0.3602475 0.3602475 0.3602475 0.3602475 0.3602475 0.3602475 0.3602475 0.3602475 0.3602475 0.3602475 0.3602475 0.3602475 0.3602475 0.3602475 0.3602475 0.3602475 0.3602475 0.3602475 0.3602475 0.3602475 0.3602475 0.3602475 0.3602475 0.3602475 0.3602475 0.3602475 0.3602475 0.3602475 0.3602475 0.3602475 0.3602475 0.3602475 0.3602475 0.3602475 0.3602475 0.3602475 0.3602475 0.3602475 0.3602475 0.3602475 0.3602475 0.3602475 0.3602475 0.3602475 0.3602475 0.3602475 0.3602475 0.3602475 0.3602475 0.3602475 0.3602475 0.3602475 0.3602475 0.3602475 0.3602475 0.3602475 0.3602475)
    300 (0.3562527 0.3561999 0.3561278 0.3560395 0.3559383 0.3558277 0.3557103 0.3555882 0.3554627 0.355335 0.3552057 0.3550754 0.3549442 0.3548125 0.3546804 0.3545479 0.3544152 0.3542823 0.3541492 0.354016 0.3538827 0.3537492 0.3536157 0.3534821 0.3533483 0.3532146 0.3530807 0.3529467 0.3528127 0.3526787 0.3525445 0.3524103 0.3522761 0.3521418 0.3520075 0.3518731 0.3517387 0.3516042 0.3514697 0.3513351 0.3512005 0.3510659 0.3509312 0.3507966 0.3506618 0.3505271 0.3503923 0.3502575 0.3501227 0.3499878 0.349853 0.3497181 0.3495831 0.3494482 0.3493133 0.3491783 0.3490433 0.3489083 0.3487733 0.3486383 0.3485033 0.3483682 0.3482332 0.3480981 0.347963 0.3478279 0.3476929 0.3475578 0.3474226 0.3472875 0.3471524 0.3470173 0.3468822 0.3467471 0.346612 0.3464768 0.3463417 0.3462066 0.3460715 0.3459364 0.3458012 0.3456661 0.345531 0.3453959 0.3452608 0.3451257 0.3449906 0.3448555 0.3447204 0.3445853 0.3444502 0.3443151 0.34418 0.3440449 0.3439099 0.3437748 0.3436397 0.3435047 0.3433696 0.3432346 0.3430995 0.3429645 0.3428295 0.3426945 0.3425594 0.3424244 0.3422894 0.3421544 0.3420194 0.3418844 0.3417494 0.3416144 0.3414795 0.3413445 0.3412095 0.3410746 0.3409396 0.3408046 0.3406697 0.3405347 0.3403998 0.3402649 0.3401299 0.339995 0.33986 0.3397251 0.3395902 0.3394553 0.3393203 0.3391854 0.3390505 0.3389155 0.3387806 0.3386457 0.3385107 0.3383758 0.3382409 0.3381059 0.337971 0.337836 0.3377011 0.3375661 0.3374312 0.3372962 0.3371612 0.3370262 0.3368912 0.3367562 0.3366212 0.3364862 0.3363512 0.3362161 0.3360811 0.335946 0.3358109 0.3356758 0.3355407 0.3354056 0.3352704 0.3351353 0.3350001 0.3348649 0.3347297 0.3345944 0.3344592 0.3343239 0.3341886 0.3340532 0.3339179 0.3337825 0.3336471 0.3335116 0.3333761 0.3332406 0.3331051 0.3329695 0.3328339 0.3326983 0.3325626 0.3324269 0.3322912 0.3321554 0.3320195 0.3318837 0.3317477 0.3316118 0.3314758 0.3313397 0.3312036 0.3310674 0.3309312 0.3307949 0.3306586 0.3305222 0.3303858 0.3302493 0.3301128 0.3299761 0.3298395 0.3297027 0.3295659 0.329429 0.329292 0.329155 0.3290179 0.3288807 0.3287434 0.3286061 0.3284687 0.3283312 0.3281936 0.3280559 0.3279181 0.3277802 0.3276422 0.3275042 0.327366 0.3272277 0.3270894 0.3269509 0.3268123 0.3266736 0.3265348 0.3263958 0.3262568 0.3261176 0.3259783 0.3258388 0.3256993 0.3255595 0.3254197 0.3252797 0.3251396 0.3249993 0.3248589 0.3247183 0.3245775 0.3244366 0.3242955 0.3241543 0.3240129 0.3238713 0.3237295 0.3235875 0.3234454 0.323303 0.3231604 0.3230177 0.3228747 0.3227315 0.3225881 0.3224445 0.3223006 0.3221565 0.3220122 0.3218676 0.3217227 0.3215776 0.3214322 0.3212865 0.3211406 0.3209944 0.3208478 0.320701 0.3205538 0.3204063 0.3202585 0.3201104 0.3199619 0.319813 0.3196637 0.3195141 0.3193641 0.3192137 0.3190628 0.3189116 0.3187598 0.3186077 0.318455 0.3183019 0.3181482 0.3179941 0.3178394 0.3176841 0.3175283 0.3173719 0.3172149 0.3170572 0.3168989 0.31674 0.3165804 0.3164201 0.3162592 0.3160976 0.3159355 0.315773 0.3156102 0.315127 0.315127 0.315127)
    300 (0.3523461 0.3522316 0.3520678 0.3518708 0.3516521 0.3514215 0.3511842 0.3509432 0.3507003 0.3504563 0.3502119 0.3499672 0.3497225 0.3494779 0.3492334 0.348989 0.3487448 0.3485008 0.348257 0.3480134 0.34777 0.3475268 0.3472838 0.3470411 0.3467986 0.3465564 0.3463144 0.3460726 0.3458311 0.3455898 0.3453487 0.3451079 0.3448674 0.3446271 0.3443871 0.3441473 0.3439077 0.3436685 0.3434295 0.3431907 0.3429522 0.342714 0.342476 0.3422383 0.3420008 0.3417636 0.3415266 0.3412899 0.3410535 0.3408174 0.3405815 0.3403459 0.3401105 0.3398754 0.3396406 0.339406 0.3391717 0.3389376 0.3387038 0.3384703 0.338237 0.338004 0.3377712 0.3375387 0.3373065 0.3370745 0.3368428 0.3366113 0.3363801 0.3361491 0.3359184 0.335688 0.3354578 0.3352278 0.3349981 0.3347687 0.3345394 0.3343105 0.3340818 0.3338533 0.333625 0.333397 0.3331693 0.3329418 0.3327145 0.3324874 0.3322606 0.3320341 0.3318077 0.3315816 0.3313557 0.33113 0.3309046 0.3306794 0.3304544 0.3302296 0.3300051 0.3297807 0.3295566 0.3293327 0.329109 0.3288855 0.3286622 0.3284391 0.3282162 0.3279935 0.327771 0.3275488 0.3273267 0.3271048 0.3268831 0.3266615 0.3264402 0.3262191 0.3259981 0.3257773 0.3255567 0.3253363 0.325116 0.3248959 0.324676 0.3244562 0.3242366 0.3240172 0.3237979 0.3235788 0.3233598 0.323141 0.3229223 0.3227037 0.3224854 0.3222671 0.322049 0.321831 0.3216131 0.3213954 0.3211778 0.3209603 0.320743 0.3205257 0.3203086 0.3200916 0.3198747 0.3196578 0.3194411 0.3192245 0.319008 0.3187916 0.3185752 0.318359 0.3181428 0.3179267 0.3177107 0.3174947 0.3172788 0.317063 0.3168472 0.3166315 0.3164158 0.3162002 0.3159846 0.3157691 0.3155536 0.3153381 0.3151227 0.3149073 0.3146919 0.3144765 0.3142611 0.3140458 0.3138304 0.313615 0.3133997 0.3131843 0.3129689 0.3127534 0.312538 0.3123225 0.312107 0.3118914 0.3116758 0.3114602 0.3112445 0.3110287 0.3108129 0.3105969 0.3103809 0.3101649 0.3099487 0.3097324 0.3095161 0.3092996 0.309083 0.3088663 0.3086494 0.3084324 0.3082153 0.307998 0.3077806 0.307563 0.3073452 0.3071273 0.3069092 0.3066908 0.3064723 0.3062536 0.3060346 0.3058154 0.305596 0.3053763 0.3051564 0.3049362 0.3047158 0.304495 0.304274 0.3040526 0.303831 0.303609 0.3033867 0.303164 0.302941 0.3027176 0.3024938 0.3022696 0.302045 0.30182 0.3015945 0.3013686 0.3011422 0.3009153 0.300688 0.3004601 0.3002317 0.3000027 0.2997732 0.2995431 0.2993123 0.299081 0.298849 0.2986163 0.2983829 0.2981489 0.2979141 0.2976785 0.2974421 0.2972049 0.2969669 0.296728 0.2964882 0.2962475 0.2960058 0.295763 0.2955193 0.2952744 0.2950285 0.2947814 0.294533 0.2942834 0.2940325 0.2937803 0.2935266 0.2932715 0.2930148 0.2927565 0.2924965 0.2922348 0.2919713 0.2917058 0.2914384 0.2911688 0.290897 0.2906229 0.2903463 0.2900671 0.2897852 0.2895003 0.2892124 0.2889212 0.2886265 0.288328 0.2880256 0.2877188 0.2874074 0.2870909 0.2867689 0.286441 0.2861065 0.2857648 0.285415 0.2850564 0.2846876 0.2843076 0.2839146 0.2835068 0.2830817 0.2826372 0.281853 0.2808086 0.2808086 0.2808086)
    300 (0.3485248 0.3483418 0.3480742 0.3477617 0.3474261 0.3470807 0.3467313 0.3463804 0.3460293 0.3456786 0.3453285 0.3449792 0.3446306 0.3442829 0.3439361 0.3435901 0.343245 0.3429008 0.3425574 0.342215 0.3418734 0.3415327 0.3411928 0.3408539 0.3405158 0.3401786 0.3398422 0.3395067 0.3391721 0.3388383 0.3385054 0.3381733 0.3378421 0.3375117 0.3371822 0.3368535 0.3365256 0.3361986 0.3358723 0.3355469 0.3352223 0.3348985 0.3345756 0.3342534 0.3339321 0.3336115 0.3332917 0.3329727 0.3326545 0.3323371 0.3320204 0.3317046 0.3313894 0.3310751 0.3307615 0.3304486 0.3301365 0.3298251 0.3295145 0.3292046 0.3288954 0.328587 0.3282792 0.3279722 0.3276659 0.3273603 0.3270554 0.3267511 0.3264476 0.3261447 0.3258426 0.325541 0.3252402 0.32494 0.3246405 0.3243416 0.3240434 0.3237458 0.3234488 0.3231525 0.3228568 0.3225618 0.3222673 0.3219734 0.3216802 0.3213875 0.3210955 0.320804 0.3205131 0.3202228 0.3199331 0.3196439 0.3193553 0.3190673 0.3187798 0.3184928 0.3182064 0.3179205 0.3176352 0.3173504 0.317066 0.3167822 0.316499 0.3162162 0.3159339 0.3156521 0.3153708 0.3150899 0.3148096 0.3145297 0.3142502 0.3139713 0.3136927 0.3134147 0.313137 0.3128598 0.312583 0.3123067 0.3120307 0.3117552 0.3114801 0.3112054 0.3109311 0.3106571 0.3103836 0.3101104 0.3098376 0.3095651 0.309293 0.3090213 0.3087499 0.3084788 0.3082081 0.3079377 0.3076676 0.3073979 0.3071284 0.3068593 0.3065904 0.3063219 0.3060536 0.3057856 0.3055179 0.3052504 0.3049832 0.3047162 0.3044495 0.304183 0.3039168 0.3036508 0.303385 0.3031194 0.302854 0.3025888 0.3023238 0.3020589 0.3017943 0.3015298 0.3012655 0.3010013 0.3007373 0.3004734 0.3002096 0.299946 0.2996824 0.299419 0.2991557 0.2988924 0.2986293 0.2983662 0.2981032 0.2978402 0.2975773 0.2973144 0.2970516 0.2967887 0.2965259 0.2962631 0.2960003 0.2957375 0.2954746 0.2952117 0.2949487 0.2946857 0.2944227 0.2941595 0.2938963 0.293633 0.2933695 0.293106 0.2928423 0.2925784 0.2923144 0.2920503 0.2917859 0.2915214 0.2912566 0.2909917 0.2907265 0.290461 0.2901953 0.2899294 0.2896631 0.2893965 0.2891296 0.2888624 0.2885948 0.2883269 0.2880586 0.2877899 0.2875207 0.2872512 0.2869811 0.2867106 0.2864396 0.2861681 0.2858961 0.2856235 0.2853503 0.2850765 0.2848021 0.284527 0.2842513 0.2839749 0.2836977 0.2834198 0.2831411 0.2828616 0.2825813 0.2823001 0.282018 0.2817349 0.2814509 0.2811659 0.2808798 0.2805926 0.2803043 0.2800149 0.2797242 0.2794323 0.279139 0.2788444 0.2785484 0.2782509 0.2779519 0.2776514 0.2773491 0.2770452 0.2767394 0.2764319 0.2761223 0.2758108 0.2754971 0.2751813 0.2748631 0.2745426 0.2742195 0.2738938 0.2735654 0.2732341 0.2728998 0.2725622 0.2722214 0.271877 0.2715289 0.271177 0.2708209 0.2704604 0.2700953 0.2697253 0.2693501 0.2689694 0.2685827 0.2681897 0.2677899 0.2673829 0.266968 0.2665448 0.2661123 0.26567 0.2652169 0.2647521 0.2642745 0.2637828 0.2632756 0.2627512 0.2622079 0.261644 0.2610574 0.2604462 0.2598088 0.2591441 0.2584524 0.2577364 0.257002 0.256261 0.2547905 0.2537985 0.2537985 0.2537985)
    300 (0.3447859 0.3445263 0.3441489 0.3437216 0.3432737 0.3428194 0.342364 0.3419093 0.3414561 0.3410046 0.3405549 0.3401071 0.3396612 0.3392173 0.3387751 0.3383349 0.3378966 0.3374601 0.3370254 0.3365926 0.3361616 0.3357325 0.3353051 0.3348795 0.3344556 0.3340335 0.3336132 0.3331946 0.3327777 0.3323624 0.3319489 0.331537 0.3311268 0.3307182 0.3303113 0.3299059 0.3295022 0.3291001 0.3286995 0.3283005 0.327903 0.3275071 0.3271127 0.3267198 0.3263284 0.3259384 0.32555 0.325163 0.3247774 0.3243933 0.3240105 0.3236292 0.3232493 0.3228707 0.3224935 0.3221177 0.3217432 0.32137 0.3209981 0.3206276 0.3202583 0.3198903 0.3195235 0.3191581 0.3187938 0.3184308 0.318069 0.3177084 0.317349 0.3169908 0.3166337 0.3162779 0.3159231 0.3155695 0.315217 0.3148656 0.3145153 0.3141661 0.313818 0.313471 0.313125 0.31278 0.3124361 0.3120932 0.3117513 0.3114104 0.3110705 0.3107316 0.3103937 0.3100567 0.3097206 0.3093855 0.3090513 0.308718 0.3083856 0.3080541 0.3077235 0.3073938 0.3070649 0.3067369 0.3064097 0.3060834 0.3057578 0.3054331 0.3051092 0.3047861 0.3044637 0.3041421 0.3038213 0.3035013 0.3031819 0.3028633 0.3025454 0.3022283 0.3019118 0.301596 0.3012809 0.3009664 0.3006527 0.3003395 0.300027 0.2997152 0.2994039 0.2990933 0.2987833 0.2984739 0.298165 0.2978567 0.297549 0.2972418 0.2969352 0.2966291 0.2963235 0.2960184 0.2957139 0.2954098 0.2951062 0.2948031 0.2945004 0.2941982 0.2938964 0.2935951 0.2932942 0.2929936 0.2926935 0.2923938 0.2920945 0.2917955 0.2914969 0.2911987 0.2909007 0.2906031 0.2903059 0.2900089 0.2897122 0.2894158 0.2891197 0.2888238 0.2885282 0.2882329 0.2879377 0.2876428 0.2873481 0.2870536 0.2867592 0.286465 0.286171 0.2858772 0.2855834 0.2852898 0.2849963 0.2847029 0.2844096 0.2841163 0.2838231 0.28353 0.2832368 0.2829437 0.2826506 0.2823575 0.2820644 0.2817712 0.2814779 0.2811846 0.2808912 0.2805977 0.2803041 0.2800104 0.2797165 0.2794224 0.2791281 0.2788337 0.278539 0.2782441 0.2779489 0.2776535 0.2773577 0.2770617 0.2767653 0.2764686 0.2761715 0.2758739 0.275576 0.2752776 0.2749788 0.2746794 0.2743796 0.2740792 0.2737782 0.2734767 0.2731745 0.2728717 0.2725682 0.272264 0.271959 0.2716533 0.2713468 0.2710394 0.2707312 0.270422 0.2701119 0.2698008 0.2694887 0.2691755 0.2688612 0.2685457 0.268229 0.2679111 0.2675919 0.2672713 0.2669492 0.2666257 0.2663007 0.2659741 0.2656458 0.2653158 0.264984 0.2646503 0.2643146 0.2639769 0.2636371 0.263295 0.2629506 0.2626038 0.2622545 0.2619025 0.2615478 0.2611901 0.2608294 0.2604656 0.2600984 0.2597277 0.2593534 0.2589752 0.2585929 0.2582064 0.2578154 0.2574196 0.2570188 0.2566127 0.256201 0.2557833 0.2553593 0.2549286 0.2544907 0.2540453 0.2535917 0.2531294 0.2526578 0.2521763 0.251684 0.2511802 0.2506641 0.2501345 0.2495906 0.2490311 0.2484549 0.2478604 0.2472466 0.2466121 0.2459557 0.2452763 0.2445733 0.2438463 0.2430958 0.2423233 0.2415312 0.2407231 0.2399034 0.2390774 0.2382506 0.2374287 0.2366172 0.2358217 0.2350484 0.2343051 0.2321849 0.2319752 0.2319752 0.2319752)
    300 (0.3411269 0.3407865 0.3402963 0.3397556 0.3391996 0.3386411 0.3380843 0.3375302 0.3369793 0.3364316 0.3358873 0.3353462 0.3348083 0.3342737 0.3337423 0.333214 0.3326889 0.3321668 0.3316478 0.3311319 0.3306189 0.3301089 0.3296018 0.3290976 0.3285963 0.3280978 0.327602 0.3271091 0.3266189 0.3261314 0.3256465 0.3251643 0.3246847 0.3242076 0.3237332 0.3232612 0.3227918 0.3223248 0.3218603 0.3213982 0.3209384 0.320481 0.320026 0.3195732 0.3191227 0.3186745 0.3182285 0.3177847 0.317343 0.3169035 0.3164661 0.3160309 0.3155976 0.3151665 0.3147374 0.3143102 0.3138851 0.3134619 0.3130406 0.3126212 0.3122038 0.3117881 0.3113744 0.3109624 0.3105523 0.3101439 0.3097373 0.3093324 0.3089292 0.3085277 0.3081279 0.3077298 0.3073332 0.3069383 0.306545 0.3061533 0.3057631 0.3053744 0.3049873 0.3046017 0.3042175 0.3038348 0.3034535 0.3030737 0.3026953 0.3023183 0.3019426 0.3015683 0.3011953 0.3008237 0.3004533 0.3000843 0.2997165 0.2993499 0.2989846 0.2986205 0.2982577 0.297896 0.2975354 0.2971761 0.2968179 0.2964608 0.2961048 0.2957499 0.295396 0.2950433 0.2946916 0.2943409 0.2939912 0.2936426 0.2932949 0.2929482 0.2926025 0.2922577 0.2919138 0.2915709 0.2912288 0.2908877 0.2905474 0.2902079 0.2898693 0.2895316 0.2891946 0.2888585 0.2885232 0.2881886 0.2878548 0.2875217 0.2871894 0.2868577 0.2865268 0.2861966 0.2858671 0.2855382 0.2852099 0.2848824 0.2845554 0.284229 0.2839033 0.2835781 0.2832534 0.2829294 0.2826059 0.2822829 0.2819604 0.2816384 0.2813169 0.2809959 0.2806753 0.2803552 0.2800354 0.2797162 0.2793973 0.2790788 0.2787606 0.2784429 0.2781254 0.2778083 0.2774915 0.277175 0.2768588 0.2765429 0.2762272 0.2759117 0.2755965 0.2752814 0.2749666 0.2746519 0.2743374 0.274023 0.2737088 0.2733946 0.2730806 0.2727666 0.2724527 0.2721388 0.2718249 0.271511 0.2711971 0.2708832 0.2705692 0.2702552 0.269941 0.2696267 0.2693123 0.2689978 0.268683 0.2683681 0.2680529 0.2677375 0.2674218 0.2671059 0.2667896 0.2664729 0.266156 0.2658386 0.2655208 0.2652025 0.2648838 0.2645645 0.2642448 0.2639244 0.2636035 0.2632819 0.2629597 0.2626368 0.2623132 0.2619888 0.2616636 0.2613375 0.2610106 0.2606827 0.2603539 0.2600241 0.2596932 0.2593612 0.2590281 0.2586937 0.2583582 0.2580213 0.257683 0.2573433 0.2570021 0.2566594 0.256315 0.255969 0.2556212 0.2552715 0.2549199 0.2545663 0.2542106 0.2538528 0.2534926 0.2531301 0.252765 0.2523973 0.2520269 0.2516536 0.2512773 0.2508979 0.2505151 0.2501289 0.2497391 0.2493455 0.2489478 0.248546 0.2481396 0.2477287 0.2473127 0.2468916 0.2464649 0.2460325 0.2455938 0.2451487 0.2446965 0.2442371 0.2437697 0.2432941 0.2428095 0.2423155 0.2418112 0.2412962 0.2407694 0.2402303 0.2396777 0.2391109 0.2385287 0.23793 0.2373138 0.2366787 0.2360238 0.2353475 0.2346493 0.2339282 0.233184 0.2324166 0.2316267 0.2308158 0.2299861 0.2291405 0.2282825 0.2274162 0.2265455 0.2256742 0.2248057 0.2239431 0.2230888 0.2222451 0.2214138 0.2205968 0.2197958 0.2190132 0.2182513 0.2175134 0.2168037 0.2161275 0.2143302 0.2139779 0.2139779 0.2139779)
    300 (0.3375452 0.3371192 0.3365156 0.3358654 0.3352053 0.3345465 0.3338919 0.3332422 0.3325976 0.331958 0.3313233 0.3306936 0.3300687 0.3294486 0.3288332 0.3282226 0.3276165 0.3270149 0.3264178 0.3258251 0.3252368 0.3246527 0.3240729 0.3234973 0.3229257 0.3223582 0.3217946 0.321235 0.3206793 0.3201274 0.3195793 0.3190348 0.3184941 0.317957 0.3174234 0.3168934 0.3163668 0.3158436 0.3153238 0.3148074 0.3142942 0.3137842 0.3132774 0.3127738 0.3122733 0.3117758 0.3112814 0.3107899 0.3103013 0.3098156 0.3093328 0.3088528 0.3083756 0.3079011 0.3074293 0.3069601 0.3064936 0.3060297 0.3055683 0.3051094 0.304653 0.3041991 0.3037475 0.3032984 0.3028516 0.3024071 0.3019648 0.3015249 0.3010871 0.3006516 0.3002182 0.2997869 0.2993577 0.2989306 0.2985055 0.2980825 0.2976614 0.2972423 0.2968251 0.2964098 0.2959964 0.2955848 0.2951751 0.2947671 0.294361 0.2939566 0.2935539 0.2931528 0.2927535 0.2923558 0.2919598 0.2915653 0.2911725 0.2907811 0.2903914 0.2900031 0.2896163 0.289231 0.2888471 0.2884647 0.2880836 0.2877039 0.2873256 0.2869487 0.286573 0.2861987 0.2858256 0.2854538 0.2850832 0.2847139 0.2843457 0.2839788 0.283613 0.2832483 0.2828848 0.2825223 0.282161 0.2818007 0.2814414 0.2810832 0.280726 0.2803698 0.2800146 0.2796603 0.279307 0.2789546 0.2786031 0.2782525 0.2779027 0.2775538 0.2772058 0.2768585 0.2765121 0.2761665 0.2758216 0.2754774 0.275134 0.2747913 0.2744493 0.274108 0.2737673 0.2734273 0.2730879 0.2727491 0.2724109 0.2720733 0.2717363 0.2713998 0.2710638 0.2707283 0.2703933 0.2700588 0.2697247 0.2693911 0.2690579 0.2687251 0.2683927 0.2680606 0.2677289 0.2673975 0.2670664 0.2667356 0.2664051 0.2660748 0.2657448 0.2654149 0.2650853 0.2647558 0.2644265 0.2640973 0.2637683 0.2634393 0.2631104 0.2627815 0.2624527 0.2621239 0.261795 0.2614661 0.2611372 0.2608081 0.2604789 0.2601496 0.2598202 0.2594905 0.2591606 0.2588305 0.2585001 0.2581695 0.2578385 0.2575071 0.2571753 0.2568432 0.2565106 0.2561775 0.2558438 0.2555097 0.255175 0.2548396 0.2545036 0.2541669 0.2538294 0.2534912 0.2531522 0.2528123 0.2524715 0.2521297 0.251787 0.2514432 0.2510983 0.2507523 0.250405 0.2500565 0.2497066 0.2493554 0.2490027 0.2486485 0.2482927 0.2479352 0.247576 0.247215 0.2468521 0.2464872 0.2461202 0.245751 0.2453795 0.2450056 0.2446293 0.2442503 0.2438685 0.2434839 0.2430963 0.2427055 0.2423113 0.2419137 0.2415124 0.2411072 0.240698 0.2402844 0.2398664 0.2394436 0.2390158 0.2385827 0.238144 0.2376993 0.2372484 0.2367908 0.2363262 0.235854 0.2353738 0.2348852 0.2343875 0.2338801 0.2333623 0.2328335 0.2322929 0.2317396 0.2311727 0.2305912 0.2299942 0.2293805 0.2287489 0.2280983 0.2274274 0.2267352 0.2260206 0.2252827 0.224521 0.2237353 0.2229259 0.2220938 0.221241 0.2203702 0.2194846 0.2185879 0.2176841 0.2167771 0.2158704 0.2149671 0.2140698 0.2131805 0.2123006 0.2114315 0.2105741 0.2097292 0.2088976 0.2080799 0.2072771 0.2064899 0.2057191 0.2049656 0.2042308 0.203516 0.2028229 0.2021534 0.2015114 0.2008999 0.1992943 0.198895 0.198895 0.198895)
    300 (0.3340382 0.3335234 0.3328077 0.3320515 0.3312908 0.3305353 0.3297866 0.3290449 0.3283103 0.3275826 0.3268619 0.326148 0.3254408 0.3247401 0.3240459 0.3233581 0.3226766 0.3220011 0.3213317 0.3206683 0.3200107 0.3193589 0.3187127 0.318072 0.3174368 0.316807 0.3161824 0.315563 0.3149487 0.3143395 0.3137352 0.3131358 0.3125412 0.3119512 0.3113659 0.3107851 0.3102089 0.309637 0.3090694 0.3085062 0.3079471 0.3073921 0.3068412 0.3062943 0.3057513 0.3052122 0.3046769 0.3041454 0.3036175 0.3030933 0.3025726 0.3020555 0.3015418 0.3010315 0.3005246 0.300021 0.2995206 0.2990234 0.2985293 0.2980384 0.2975505 0.2970656 0.2965836 0.2961046 0.2956284 0.2951551 0.2946845 0.2942166 0.2937515 0.293289 0.292829 0.2923717 0.2919169 0.2914646 0.2910147 0.2905672 0.2901222 0.2896794 0.289239 0.2888008 0.2883648 0.2879311 0.2874995 0.2870701 0.2866427 0.2862174 0.2857941 0.2853729 0.2849536 0.2845362 0.2841208 0.2837072 0.2832955 0.2828856 0.2824775 0.2820712 0.2816666 0.2812636 0.2808624 0.2804629 0.2800649 0.2796686 0.2792738 0.2788806 0.2784889 0.2780987 0.2777099 0.2773226 0.2769368 0.2765523 0.2761692 0.2757875 0.275407 0.2750279 0.2746501 0.2742735 0.2738982 0.2735241 0.2731511 0.2727794 0.2724088 0.2720393 0.2716709 0.2713036 0.2709373 0.2705721 0.2702079 0.2698447 0.2694825 0.2691212 0.2687609 0.2684015 0.2680429 0.2676853 0.2673285 0.2669725 0.2666173 0.2662629 0.2659093 0.2655565 0.2652043 0.2648529 0.2645022 0.2641521 0.2638027 0.2634539 0.2631057 0.2627581 0.2624111 0.2620646 0.2617187 0.2613732 0.2610282 0.2606837 0.2603396 0.259996 0.2596527 0.2593099 0.2589673 0.2586251 0.2582833 0.2579417 0.2576004 0.2572593 0.2569184 0.2565778 0.2562373 0.2558969 0.2555567 0.2552166 0.2548766 0.2545366 0.2541966 0.2538567 0.2535167 0.2531766 0.2528365 0.2524963 0.2521559 0.2518154 0.2514747 0.2511337 0.2507925 0.250451 0.2501092 0.249767 0.2494244 0.2490814 0.248738 0.248394 0.2480496 0.2477045 0.2473589 0.2470125 0.2466655 0.2463178 0.2459693 0.2456199 0.2452697 0.2449185 0.2445664 0.2442132 0.2438589 0.2435035 0.2431469 0.2427891 0.2424299 0.2420693 0.2417072 0.2413436 0.2409784 0.2406115 0.2402428 0.2398723 0.2394998 0.2391252 0.2387486 0.2383696 0.2379883 0.2376045 0.2372182 0.2368291 0.2364371 0.2360421 0.235644 0.2352425 0.2348376 0.2344289 0.2340164 0.2335998 0.233179 0.2327535 0.2323233 0.2318881 0.2314475 0.2310012 0.2305489 0.2300903 0.2296249 0.2291524 0.2286722 0.2281839 0.227687 0.2271808 0.2266648 0.2261382 0.2256003 0.2250503 0.2244873 0.2239103 0.2233183 0.2227102 0.2220849 0.2214411 0.2207776 0.2200931 0.2193863 0.218656 0.2179013 0.2171214 0.2163159 0.2154853 0.2146302 0.2137526 0.2128549 0.2119405 0.2110133 0.2100775 0.2091373 0.2081968 0.2072593 0.2063277 0.2054044 0.2044908 0.2035882 0.2026974 0.2018191 0.2009538 0.2001016 0.199263 0.1984383 0.1976276 0.1968312 0.1960494 0.1952825 0.1945309 0.1937948 0.1930747 0.1923714 0.1916854 0.1910174 0.1903683 0.1897391 0.1891311 0.1885468 0.1879882 0.1874585 0.1860933 0.1860933 0.1860933)
    300 (0.3306038 0.3299987 0.3291729 0.3283135 0.3274563 0.3266073 0.3257677 0.3249375 0.3241167 0.3233051 0.3225026 0.3217089 0.3209239 0.3201475 0.3193795 0.3186198 0.317868 0.3171242 0.3163881 0.3156595 0.3149384 0.3142246 0.313518 0.3128184 0.3121256 0.3114396 0.3107602 0.3100873 0.3094208 0.3087606 0.3081065 0.3074585 0.3068164 0.3061801 0.3055495 0.3049245 0.304305 0.3036909 0.3030821 0.3024785 0.3018801 0.3012866 0.3006981 0.3001144 0.2995354 0.2989611 0.2983915 0.2978263 0.2972655 0.2967091 0.2961569 0.2956089 0.2950651 0.2945252 0.2939894 0.2934575 0.2929294 0.2924051 0.2918844 0.2913675 0.2908541 0.2903442 0.2898378 0.2893347 0.288835 0.2883386 0.2878455 0.2873555 0.2868686 0.2863848 0.285904 0.2854261 0.2849512 0.2844792 0.2840099 0.2835435 0.2830797 0.2826186 0.2821602 0.2817044 0.2812511 0.2808003 0.2803519 0.279906 0.2794625 0.2790213 0.2785824 0.2781458 0.2777113 0.2772791 0.2768491 0.2764211 0.2759952 0.2755714 0.2751496 0.2747297 0.2743118 0.2738958 0.2734817 0.2730694 0.272659 0.2722503 0.2718434 0.2714382 0.2710346 0.2706328 0.2702325 0.2698339 0.2694369 0.2690413 0.2686473 0.2682548 0.2678638 0.2674742 0.267086 0.2666991 0.2663137 0.2659295 0.2655467 0.2651651 0.2647848 0.2644057 0.2640278 0.2636511 0.2632756 0.2629011 0.2625278 0.2621556 0.2617844 0.2614142 0.2610451 0.2606769 0.2603097 0.2599434 0.259578 0.2592135 0.2588499 0.2584872 0.2581252 0.2577641 0.2574037 0.2570441 0.2566852 0.256327 0.2559695 0.2556126 0.2552564 0.2549008 0.2545457 0.2541913 0.2538373 0.2534839 0.253131 0.2527786 0.2524266 0.252075 0.2517238 0.251373 0.2510225 0.2506724 0.2503225 0.2499729 0.2496236 0.2492745 0.2489255 0.2485768 0.2482282 0.2478796 0.2475312 0.2471828 0.2468344 0.2464861 0.2461377 0.2457892 0.2454406 0.2450919 0.2447431 0.244394 0.2440447 0.2436952 0.2433453 0.2429952 0.2426446 0.2422936 0.2419422 0.2415903 0.2412379 0.2408849 0.2405313 0.240177 0.239822 0.2394662 0.2391097 0.2387523 0.238394 0.2380347 0.2376744 0.237313 0.2369505 0.2365867 0.2362217 0.2358554 0.2354876 0.2351184 0.2347476 0.2343752 0.234001 0.233625 0.2332471 0.2328672 0.2324852 0.232101 0.2317144 0.2313254 0.2309339 0.2305396 0.2301424 0.2297423 0.229339 0.2289324 0.2285223 0.2281085 0.2276908 0.227269 0.2268429 0.2264122 0.2259766 0.225536 0.2250899 0.2246381 0.2241802 0.2237158 0.2232446 0.222766 0.2222796 0.2217849 0.2212814 0.2207683 0.2202451 0.219711 0.2191652 0.2186068 0.218035 0.2174487 0.2168467 0.216228 0.2155912 0.214935 0.214258 0.2135587 0.2128358 0.2120878 0.2113137 0.2105125 0.2096837 0.2088274 0.2079447 0.2070376 0.2061089 0.2051623 0.2042022 0.2032333 0.2022605 0.201288 0.2003195 0.1993583 0.1984065 0.1974659 0.1965377 0.1956226 0.1947211 0.1938335 0.19296 0.1921007 0.1912557 0.190425 0.1896085 0.1888066 0.1880189 0.1872456 0.1864867 0.1857421 0.1850119 0.1842963 0.1835952 0.1829088 0.1822372 0.1815808 0.1809396 0.1803142 0.1797049 0.1791127 0.1785378 0.177981 0.1774437 0.1769273 0.1763606 0.1751193 0.1751193 0.1751193)