FoamFile
{
    version     2.0;
    format      ascii;
    class       scalarListList;
    object      T;
}

// * * * * * * * * * * * * * * * * * * * * * * * * * * * * * * * * * * * * * //

101
(
    300 (980 980 980 980 980 980 980 980 980 980 980 980 980 980 980 980 980 980 980 980 980 980 980 980 980 980 980 980 980 980 980 980 980 980 980 980 980 980 980 980 980 980 980 980 980 980 980 980 980 980 980 980 980 980 980 980 980 980 980 980 980 980 980 980 980 980 980 980 980 980 980 980 980 980 980 980 980 980 980 980 980 980 980 980 980 980 980 980 980 980 980 980 980 980 980 980 980 980 980 980 980 980 980 980 980 980 980 980 980 980 980 980 980 980 980 980 980 980 980 980 980 980 980 980 980 980 980 980 980 980 980 980 980 980 980 980 980 980 980 980 980 980 980 980 980 980 980 980 980 980 980 980 980 980 980 980 980 980 980 980 980 980 980 980 980 980 980 980 980 980 980 980 980 980 980 980 980 980 980 980 980 980 980 980 980 980 980 980 980 980 980 980 980 980 980 980 980 980 980 980 980 980 980 980 980 980 980 980 980 980 980 980 980 980 980 980 980 980 980 980 980 980 980 980 980 980 980 980 980 980 980 980 980 980 980 980 980 980 980 980 980 980 980 980 980 980 980 980 980 980 980 980 980 980 980 980 980 980 980 980 980 980 980 980 980 980 980 980 980 980 980 980 980 980 980 980 980 980 980 980 980 980 980 980 980 980 980 980 980 980 980 980 980 980 980 980 980 980 980 980)
    300 (973.7738 973.9371 974.155 974.4184 974.7185 975.0453 975.3915 975.7513 976.1206 976.4966 976.8774 977.2615 977.6481 978.0366 978.4266 978.8178 979.2101 979.6032 979.9971 980.3917 980.7871 981.183 981.5796 981.9767 982.3744 982.7727 983.1715 983.5709 983.9707 984.3711 984.772 985.1733 985.5752 985.9775 986.3803 986.7836 987.1873 987.5915 987.9962 988.4013 988.8069 989.2128 989.6193 990.0261 990.4334 990.8411 991.2493 991.6578 992.0668 992.4761 992.8859 993.2961 993.7067 994.1177 994.5291 994.9408 995.353 995.7655 996.1785 996.5918 997.0055 997.4196 997.8341 998.2489 998.6641 999.0797 999.4956 999.912 1000.329 1000.746 1001.163 1001.581 1001.999 1002.418 1002.837 1003.256 1003.675 1004.095 1004.515 1004.936 1005.357 1005.778 1006.2 1006.622 1007.045 1007.467 1007.89 1008.314 1008.738 1009.162 1009.586 1010.011 1010.436 1010.862 1011.288 1011.714 1012.14 1012.567 1012.995 1013.422 1013.85 1014.278 1014.707 1015.136 1015.565 1015.995 1016.425 1016.855 1017.286 1017.717 1018.149 1018.58 1019.013 1019.445 1019.878 1020.311 1020.745 1021.179 1021.613 1022.048 1022.483 1022.918 1023.354 1023.79 1024.226 1024.663 1025.1 1025.538 1025.976 1026.414 1026.853 1027.292 1027.732 1028.171 1028.612 1029.052 1029.493 1029.935 1030.377 1030.819 1031.261 1031.704 1032.148 1032.592 1033.036 1033.48 1033.925 1034.371 1034.817 1035.263 1035.71 1036.157 1036.604 1037.052 1037.501 1037.95 1038.399 1038.849 1039.299 1039.75 1040.201 1040.652 1041.104 1041.557 1042.01 1042.463 1042.917 1043.372 1043.827 1044.282 1044.738 1045.194 1045.651 1046.108 1046.566 1047.025 1047.484 1047.943 1048.403 1048.864 1049.325 1049.786 1050.248 1050.711 1051.174 1051.638 1052.103 1052.568 1053.033 1053.499 1053.966 1054.433 1054.901 1055.37 1055.839 1056.309 1056.779 1057.25 1057.722 1058.194 1058.667 1059.141 1059.615 1060.09 1060.566 1061.042 1061.52 1061.997 1062.476 1062.955 1063.435 1063.916 1064.397 1064.88 1065.363 1065.847 1066.331 1066.817 1067.303 1067.79 1068.278 1068.767 1069.256 1069.747 1070.238 1070.73 1071.223 1071.717 1072.212 1072.708 1073.205 1073.703 1074.202 1074.701 1075.202 1075.704 1076.207 1076.711 1077.215 1077.722 1078.229 1078.737 1079.246 1079.757 1080.268 1080.781 1081.295 1081.811 1082.327 1082.845 1083.364 1083.885 1084.406 1084.929 1085.454 1085.98 1086.507 1087.036 1087.566 1088.098 1088.631 1089.166 1089.703 1090.241 1090.781 1091.323 1091.866 1092.411 1092.958 1093.507 1094.058 1094.61 1095.165 1095.722 1096.281 1096.842 1097.405 1097.97 1098.538 1099.108 1099.681 1100.256 1100.834 1101.414 1101.997 1102.583 1103.172 1103.764 1104.358 1104.956 1105.557 1106.161 1106.768 1107.378 1107.991 1108.606 1109.222 1111.054 1111.054 1111.054)
    300 (967.7587 968.1109 968.6026 969.1884 969.8362 970.5185 971.2207 971.9343 972.6544 973.3784 974.1048 974.8329 975.5621 976.2922 977.0231 977.7546 978.4867 979.2193 979.9525 980.6861 981.4201 982.1546 982.8895 983.6249 984.3606 985.0967 985.8333 986.5702 987.3074 988.0451 988.7831 989.5214 990.2601 990.9991 991.7385 992.4782 993.2182 993.9585 994.6992 995.4401 996.1814 996.923 997.6649 998.4071 999.1496 999.8924 1000.636 1001.379 1002.123 1002.867 1003.611 1004.355 1005.1 1005.845 1006.591 1007.337 1008.082 1008.829 1009.575 1010.322 1011.069 1011.817 1012.564 1013.312 1014.061 1014.809 1015.558 1016.307 1017.057 1017.806 1018.556 1019.307 1020.057 1020.808 1021.559 1022.311 1023.063 1023.815 1024.567 1025.32 1026.073 1026.827 1027.58 1028.334 1029.089 1029.844 1030.599 1031.354 1032.11 1032.866 1033.622 1034.379 1035.137 1035.894 1036.652 1037.41 1038.169 1038.928 1039.688 1040.448 1041.208 1041.969 1042.73 1043.492 1044.254 1045.016 1045.779 1046.543 1047.306 1048.071 1048.836 1049.601 1050.367 1051.133 1051.9 1052.667 1053.435 1054.203 1054.972 1055.741 1056.511 1057.282 1058.053 1058.824 1059.596 1060.369 1061.143 1061.917 1062.691 1063.467 1064.243 1065.019 1065.796 1066.574 1067.353 1068.132 1068.912 1069.693 1070.474 1071.257 1072.04 1072.823 1073.608 1074.393 1075.179 1075.966 1076.754 1077.542 1078.332 1079.122 1079.913 1080.705 1081.498 1082.292 1083.087 1083.883 1084.679 1085.477 1086.276 1087.076 1087.876 1088.678 1089.481 1090.285 1091.09 1091.896 1092.704 1093.512 1094.322 1095.133 1095.945 1096.758 1097.573 1098.388 1099.206 1100.024 1100.844 1101.665 1102.487 1103.311 1104.137 1104.963 1105.792 1106.621 1107.453 1108.286 1109.12 1109.956 1110.794 1111.633 1112.474 1113.317 1114.161 1115.007 1115.855 1116.705 1117.557 1118.411 1119.266 1120.124 1120.983 1121.845 1122.709 1123.574 1124.442 1125.312 1126.185 1127.06 1127.937 1128.816 1129.698 1130.582 1131.469 1132.358 1133.25 1134.144 1135.042 1135.942 1136.844 1137.75 1138.659 1139.57 1140.485 1141.403 1142.324 1143.248 1144.176 1145.106 1146.041 1146.979 1147.92 1148.866 1149.815 1150.768 1151.724 1152.685 1153.65 1154.62 1155.593 1156.572 1157.554 1158.542 1159.534 1160.531 1161.534 1162.541 1163.554 1164.572 1165.596 1166.626 1167.662 1168.704 1169.752 1170.807 1171.869 1172.937 1174.013 1175.097 1176.187 1177.286 1178.393 1179.509 1180.634 1181.767 1182.91 1184.064 1185.227 1186.401 1187.587 1188.784 1189.993 1191.216 1192.451 1193.701 1194.966 1196.247 1197.544 1198.859 1200.192 1201.546 1202.92 1204.318 1205.74 1207.188 1208.665 1210.173 1211.714 1213.293 1214.914 1216.579 1218.296 1220.071 1221.911 1223.826 1225.827 1227.927 1231.648 1236.613 1236.613 1236.613)
    300 (961.944 962.5055 963.3073 964.2375 965.235 966.2619 967.3025 968.3493 969.3987 970.4493 971.5002 972.5511 973.6019 974.6524 975.7026 976.7524 977.8019 978.8509 979.8995 980.9477 981.9954 983.0427 984.0895 985.1359 986.1819 987.2274 988.2724 989.317 990.3611 991.4048 992.448 993.4907 994.533 995.5749 996.6163 997.6572 998.6977 999.7378 1000.778 1001.817 1002.855 1003.894 1004.932 1005.969 1007.006 1008.043 1009.079 1010.115 1011.15 1012.185 1013.22 1014.254 1015.288 1016.322 1017.355 1018.388 1019.42 1020.452 1021.484 1022.516 1023.547 1024.578 1025.608 1026.638 1027.668 1028.698 1029.727 1030.757 1031.786 1032.814 1033.843 1034.871 1035.899 1036.927 1037.954 1038.982 1040.009 1041.036 1042.063 1043.09 1044.117 1045.144 1046.17 1047.196 1048.223 1049.249 1050.275 1051.302 1052.328 1053.354 1054.38 1055.406 1056.432 1057.459 1058.485 1059.511 1060.538 1061.564 1062.591 1063.618 1064.645 1065.672 1066.699 1067.727 1068.754 1069.782 1070.81 1071.838 1072.867 1073.896 1074.925 1075.955 1076.984 1078.015 1079.045 1080.076 1081.107 1082.139 1083.171 1084.204 1085.237 1086.271 1087.305 1088.339 1089.375 1090.41 1091.447 1092.484 1093.521 1094.56 1095.599 1096.638 1097.679 1098.72 1099.762 1100.805 1101.848 1102.893 1103.938 1104.984 1106.031 1107.079 1108.128 1109.178 1110.229 1111.281 1112.334 1113.388 1114.443 1115.499 1116.557 1117.616 1118.675 1119.737 1120.799 1121.863 1122.928 1123.995 1125.063 1126.132 1127.203 1128.276 1129.35 1130.426 1131.503 1132.582 1133.662 1134.745 1135.829 1136.915 1138.002 1139.092 1140.184 1141.277 1142.373 1143.47 1144.57 1145.672 1146.776 1147.882 1148.991 1150.102 1151.215 1152.331 1153.449 1154.57 1155.693 1156.819 1157.948 1159.079 1160.214 1161.351 1162.491 1163.634 1164.78 1165.93 1167.082 1168.238 1169.397 1170.56 1171.726 1172.896 1174.069 1175.246 1176.427 1177.612 1178.801 1179.994 1181.191 1182.392 1183.598 1184.808 1186.023 1187.242 1188.466 1189.696 1190.93 1192.169 1193.413 1194.663 1195.919 1197.18 1198.447 1199.72 1200.999 1202.284 1203.576 1204.874 1206.179 1207.491 1208.81 1210.136 1211.47 1212.812 1214.162 1215.52 1216.886 1218.261 1219.645 1221.038 1222.441 1223.853 1225.276 1226.709 1228.152 1229.607 1231.074 1232.552 1234.042 1235.546 1237.062 1238.592 1240.137 1241.696 1243.271 1244.861 1246.468 1248.093 1249.735 1251.397 1253.078 1254.779 1256.502 1258.248 1260.018 1261.812 1263.633 1265.481 1267.359 1269.267 1271.209 1273.185 1275.198 1277.251 1279.345 1281.485 1283.673 1285.914 1288.211 1290.569 1292.993 1295.489 1298.064 1300.725 1303.482 1306.345 1309.323 1312.429 1315.674 1319.073 1322.635 1326.37 1330.278 1334.345 1338.542 1342.8 1351.32 1357.084 1357.084 1357.084)
    300 (956.3201 957.1158 958.2475 959.5236 960.8613 962.2208 963.5872 964.9549 966.322 967.6876 969.0516 970.4137 971.7738 973.1319 974.4881 975.8423 977.1944 978.5446 979.8928 981.2391 982.5833 983.9257 985.2661 986.6045 987.9411 989.2757 990.6085 991.9394 993.2685 994.5957 995.9211 997.2448 998.5666 999.8866 1001.205 1002.522 1003.836 1005.15 1006.461 1007.771 1009.079 1010.385 1011.69 1012.994 1014.295 1015.595 1016.894 1018.191 1019.487 1020.781 1022.073 1023.364 1024.654 1025.942 1027.229 1028.515 1029.799 1031.082 1032.364 1033.644 1034.923 1036.201 1037.478 1038.753 1040.027 1041.301 1042.573 1043.843 1045.113 1046.382 1047.65 1048.916 1050.182 1051.447 1052.711 1053.974 1055.236 1056.497 1057.757 1059.016 1060.275 1061.533 1062.79 1064.046 1065.302 1066.557 1067.811 1069.065 1070.318 1071.57 1072.822 1074.074 1075.325 1076.575 1077.825 1079.075 1080.324 1081.573 1082.821 1084.069 1085.317 1086.565 1087.812 1089.059 1090.306 1091.553 1092.8 1094.046 1095.293 1096.54 1097.786 1099.033 1100.279 1101.526 1102.773 1104.02 1105.267 1106.514 1107.762 1109.009 1110.257 1111.506 1112.755 1114.004 1115.254 1116.504 1117.754 1119.005 1120.257 1121.51 1122.762 1124.016 1125.27 1126.526 1127.781 1129.038 1130.296 1131.554 1132.813 1134.074 1135.335 1136.598 1137.861 1139.126 1140.392 1141.659 1142.927 1144.197 1145.467 1146.74 1148.014 1149.289 1150.566 1151.844 1153.124 1154.406 1155.689 1156.974 1158.261 1159.55 1160.841 1162.134 1163.429 1164.726 1166.025 1167.326 1168.63 1169.935 1171.244 1172.554 1173.868 1175.183 1176.502 1177.823 1179.147 1180.474 1181.804 1183.136 1184.472 1185.811 1187.153 1188.499 1189.847 1191.2 1192.555 1193.915 1195.278 1196.645 1198.016 1199.391 1200.77 1202.153 1203.54 1204.932 1206.329 1207.73 1209.135 1210.546 1211.962 1213.382 1214.808 1216.239 1217.676 1219.118 1220.566 1222.02 1223.481 1224.947 1226.42 1227.899 1229.385 1230.878 1232.377 1233.885 1235.399 1236.921 1238.452 1239.99 1241.536 1243.091 1244.655 1246.228 1247.81 1249.402 1251.004 1252.616 1254.238 1255.871 1257.515 1259.17 1260.838 1262.517 1264.209 1265.914 1267.633 1269.365 1271.112 1272.873 1274.65 1276.443 1278.253 1280.079 1281.923 1283.786 1285.668 1287.57 1289.493 1291.437 1293.404 1295.394 1297.409 1299.45 1301.517 1303.613 1305.738 1307.893 1310.082 1312.304 1314.563 1316.859 1319.196 1321.574 1323.998 1326.469 1328.991 1331.567 1334.2 1336.894 1339.654 1342.484 1345.39 1348.376 1351.45 1354.618 1357.888 1361.268 1364.767 1368.395 1372.162 1376.077 1380.151 1384.393 1388.81 1393.407 1398.184 1403.135 1408.248 1413.501 1418.869 1424.318 1429.813 1435.316 1440.788 1446.19 1451.476 1456.587 1471.301 1472.759 1472.759 1472.759)
    300 (950.8776 951.9213 953.3949 955.0167 956.6872 958.37 960.0537 961.7347 963.4118 965.0849 966.7537 968.4182 970.0783 971.7342 973.3859 975.0333 976.6766 978.3157 979.9506 981.5815 983.2084 984.8313 986.4502 988.0651 989.6763 991.2835 992.887 994.4867 996.0828 997.6751 999.2638 1000.849 1002.431 1004.009 1005.583 1007.154 1008.722 1010.287 1011.848 1013.406 1014.96 1016.512 1018.06 1019.605 1021.147 1022.686 1024.222 1025.755 1027.286 1028.813 1030.337 1031.859 1033.378 1034.895 1036.408 1037.919 1039.428 1040.934 1042.437 1043.938 1045.437 1046.933 1048.427 1049.919 1051.408 1052.895 1054.38 1055.863 1057.344 1058.823 1060.299 1061.774 1063.247 1064.718 1066.187 1067.655 1069.12 1070.584 1072.046 1073.507 1074.966 1076.423 1077.879 1079.333 1080.786 1082.238 1083.688 1085.137 1086.585 1088.031 1089.477 1090.921 1092.364 1093.806 1095.247 1096.687 1098.126 1099.564 1101.001 1102.437 1103.873 1105.308 1106.742 1108.176 1109.609 1111.042 1112.474 1113.905 1115.336 1116.767 1118.197 1119.627 1121.057 1122.487 1123.916 1125.346 1126.775 1128.204 1129.633 1131.063 1132.492 1133.922 1135.352 1136.782 1138.212 1139.643 1141.074 1142.506 1143.938 1145.371 1146.804 1148.238 1149.672 1151.108 1152.544 1153.981 1155.419 1156.858 1158.298 1159.739 1161.181 1162.625 1164.069 1165.515 1166.962 1168.411 1169.861 1171.313 1172.767 1174.222 1175.679 1177.137 1178.598 1180.06 1181.525 1182.991 1184.46 1185.931 1187.404 1188.879 1190.357 1191.838 1193.321 1194.806 1196.295 1197.786 1199.28 1200.778 1202.278 1203.781 1205.288 1206.798 1208.312 1209.829 1211.35 1212.874 1214.403 1215.935 1217.471 1219.012 1220.556 1222.106 1223.659 1225.218 1226.781 1228.349 1229.922 1231.5 1233.083 1234.672 1236.267 1237.867 1239.473 1241.085 1242.703 1244.328 1245.959 1247.597 1249.241 1250.893 1252.552 1254.219 1255.893 1257.575 1259.265 1260.964 1262.671 1264.387 1266.112 1267.846 1269.59 1271.344 1273.108 1274.882 1276.667 1278.464 1280.271 1282.091 1283.923 1285.767 1287.625 1289.495 1291.38 1293.279 1295.192 1297.121 1299.066 1301.027 1303.005 1305 1307.014 1309.047 1311.099 1313.171 1315.265 1317.38 1319.519 1321.681 1323.868 1326.081 1328.32 1330.588 1332.885 1335.213 1337.573 1339.967 1342.396 1344.862 1347.368 1349.914 1352.504 1355.14 1357.824 1360.559 1363.348 1366.195 1369.102 1372.075 1375.117 1378.232 1381.426 1384.705 1388.074 1391.54 1395.11 1398.792 1402.595 1406.526 1410.596 1414.816 1419.194 1423.744 1428.472 1433.388 1438.499 1443.806 1449.31 1455.004 1460.876 1466.91 1473.083 1479.368 1485.739 1492.168 1498.631 1505.105 1511.57 1518.008 1524.404 1530.741 1537.002 1543.165 1549.209 1555.103 1560.809 1566.277 1580.935 1583.812 1583.812 1583.812)
    300 (945.6078 946.9156 948.7359 950.6963 952.6924 954.692 956.6871 958.6755 960.6566 962.6304 964.5969 966.5561 968.5081 970.453 972.3908 974.3215 976.2454 978.1624 980.0727 981.9763 983.8733 985.7638 987.6478 989.5255 991.3969 993.2621 995.1212 996.9743 998.8214 1000.663 1002.498 1004.328 1006.152 1007.97 1009.783 1011.591 1013.393 1015.19 1016.981 1018.768 1020.549 1022.326 1024.097 1025.864 1027.625 1029.383 1031.135 1032.883 1034.626 1036.365 1038.1 1039.83 1041.556 1043.278 1044.996 1046.71 1048.42 1050.126 1051.828 1053.527 1055.222 1056.913 1058.6 1060.284 1061.965 1063.642 1065.317 1066.987 1068.655 1070.32 1071.981 1073.64 1075.295 1076.948 1078.598 1080.245 1081.89 1083.532 1085.171 1086.808 1088.442 1090.075 1091.704 1093.332 1094.957 1096.581 1098.202 1099.821 1101.438 1103.054 1104.667 1106.279 1107.889 1109.498 1111.104 1112.71 1114.314 1115.916 1117.517 1119.117 1120.715 1122.313 1123.909 1125.504 1127.098 1128.691 1130.284 1131.875 1133.466 1135.056 1136.645 1138.234 1139.822 1141.41 1142.998 1144.585 1146.171 1147.758 1149.344 1150.931 1152.517 1154.103 1155.69 1157.276 1158.863 1160.45 1162.037 1163.625 1165.213 1166.802 1168.391 1169.982 1171.572 1173.164 1174.756 1176.35 1177.944 1179.54 1181.137 1182.735 1184.334 1185.935 1187.537 1189.141 1190.746 1192.353 1193.962 1195.572 1197.185 1198.799 1200.416 1202.035 1203.656 1205.28 1206.906 1208.534 1210.165 1211.799 1213.436 1215.076 1216.718 1218.364 1220.013 1221.665 1223.321 1224.98 1226.643 1228.31 1229.981 1231.655 1233.334 1235.017 1236.704 1238.396 1240.093 1241.794 1243.5 1245.211 1246.928 1248.65 1250.377 1252.11 1253.849 1255.593 1257.344 1259.102 1260.865 1262.636 1264.413 1266.197 1267.989 1269.788 1271.595 1273.41 1275.233 1277.065 1278.905 1280.754 1282.612 1284.479 1286.356 1288.244 1290.141 1292.049 1293.969 1295.899 1297.841 1299.795 1301.761 1303.74 1305.733 1307.738 1309.758 1311.793 1313.842 1315.907 1317.988 1320.086 1322.2 1324.333 1326.484 1328.654 1330.843 1333.054 1335.286 1337.539 1339.816 1342.117 1344.443 1346.795 1349.174 1351.581 1354.018 1356.485 1358.985 1361.518 1364.087 1366.693 1369.337 1372.023 1374.751 1377.525 1380.346 1383.218 1386.142 1389.123 1392.164 1395.267 1398.438 1401.68 1404.998 1408.397 1411.883 1415.462 1419.14 1422.924 1426.822 1430.844 1434.997 1439.292 1443.74 1448.351 1453.136 1458.107 1463.276 1468.652 1474.244 1480.056 1486.094 1492.352 1498.821 1505.485 1512.324 1519.312 1526.421 1533.622 1540.889 1548.196 1555.524 1562.855 1570.175 1577.472 1584.737 1591.96 1599.133 1606.247 1613.291 1620.258 1627.135 1633.91 1640.569 1647.094 1653.466 1659.661 1665.64 1671.366 1686.524 1690.301 1690.301 1690.301)
    300 (940.5028 942.0866 944.2537 946.5465 948.8619 951.1726 953.4736 955.7638 958.043 960.3112 962.5684 964.8149 967.0507 969.276 971.4909 973.6955 975.89 978.0745 980.2492 982.4141 984.5695 986.7155 988.8522 990.9797 993.0981 995.2077 997.3085 999.4007 1001.484 1003.56 1005.627 1007.685 1009.736 1011.779 1013.814 1015.841 1017.861 1019.873 1021.878 1023.876 1025.867 1027.85 1029.827 1031.797 1033.761 1035.717 1037.668 1039.612 1041.55 1043.482 1045.407 1047.327 1049.241 1051.149 1053.052 1054.949 1056.841 1058.728 1060.609 1062.485 1064.357 1066.223 1068.084 1069.941 1071.793 1073.641 1075.484 1077.322 1079.157 1080.987 1082.813 1084.635 1086.454 1088.268 1090.079 1091.886 1093.689 1095.489 1097.286 1099.079 1100.869 1102.655 1104.439 1106.22 1107.998 1109.773 1111.545 1113.314 1115.081 1116.846 1118.607 1120.367 1122.124 1123.879 1125.632 1127.383 1129.132 1130.879 1132.624 1134.368 1136.109 1137.85 1139.588 1141.325 1143.061 1144.796 1146.529 1148.261 1149.992 1151.722 1153.452 1155.18 1156.908 1158.635 1160.361 1162.087 1163.812 1165.537 1167.262 1168.986 1170.71 1172.435 1174.159 1175.883 1177.608 1179.333 1181.058 1182.783 1184.509 1186.236 1187.963 1189.691 1191.42 1193.15 1194.881 1196.613 1198.346 1200.08 1201.816 1203.553 1205.292 1207.032 1208.774 1210.518 1212.264 1214.012 1215.762 1217.514 1219.269 1221.026 1222.785 1224.547 1226.312 1228.08 1229.85 1231.624 1233.401 1235.182 1236.965 1238.753 1240.544 1242.338 1244.137 1245.94 1247.747 1249.559 1251.374 1253.195 1255.02 1256.851 1258.686 1260.527 1262.373 1264.224 1266.082 1267.945 1269.815 1271.69 1273.573 1275.462 1277.357 1279.26 1281.171 1283.088 1285.014 1286.947 1288.889 1290.839 1292.798 1294.766 1296.744 1298.73 1300.727 1302.734 1304.751 1306.779 1308.818 1310.869 1312.932 1315.006 1317.094 1319.194 1321.308 1323.436 1325.578 1327.735 1329.907 1332.095 1334.3 1336.521 1338.76 1341.018 1343.294 1345.59 1347.906 1350.243 1352.602 1354.984 1357.39 1359.82 1362.276 1364.758 1367.268 1369.807 1372.377 1374.978 1377.612 1380.28 1382.985 1385.727 1388.51 1391.334 1394.202 1397.116 1400.079 1403.093 1406.162 1409.287 1412.474 1415.725 1419.044 1422.436 1425.905 1429.456 1433.096 1436.83 1440.664 1444.607 1448.666 1452.85 1457.169 1461.633 1466.252 1471.039 1476.006 1481.167 1486.535 1492.122 1497.942 1504.004 1510.318 1516.885 1523.706 1530.772 1538.068 1545.573 1553.258 1561.092 1569.043 1577.08 1585.173 1593.297 1601.434 1609.566 1617.681 1625.771 1633.826 1641.841 1649.809 1657.726 1665.585 1673.382 1681.111 1688.767 1696.342 1703.832 1711.228 1718.522 1725.704 1732.763 1739.689 1746.468 1753.082 1759.515 1765.735 1771.713 1777.408 1792.168 1792.168 1792.168)
    300 (935.5549 937.421 939.933 942.5539 945.1815 947.7979 950.3996 952.9859 955.5569 958.1127 960.6535 963.1794 965.6908 968.1878 970.6706 973.1394 975.5945 978.036 980.4643 982.8795 985.2818 987.6714 990.0485 992.4134 994.7662 997.1071 999.4363 1001.754 1004.061 1006.356 1008.64 1010.913 1013.176 1015.429 1017.671 1019.903 1022.125 1024.337 1026.54 1028.733 1030.917 1033.092 1035.258 1037.415 1039.564 1041.704 1043.836 1045.96 1048.075 1050.183 1052.283 1054.376 1056.461 1058.538 1060.609 1062.673 1064.729 1066.779 1068.823 1070.86 1072.89 1074.914 1076.933 1078.945 1080.951 1082.952 1084.947 1086.936 1088.921 1090.9 1092.873 1094.842 1096.806 1098.765 1100.72 1102.669 1104.615 1106.556 1108.493 1110.425 1112.354 1114.279 1116.199 1118.117 1120.03 1121.94 1123.847 1125.75 1127.65 1129.547 1131.441 1133.332 1135.22 1137.106 1138.989 1140.869 1142.747 1144.623 1146.496 1148.367 1150.236 1152.103 1153.969 1155.832 1157.694 1159.554 1161.413 1163.27 1165.126 1166.981 1168.834 1170.687 1172.539 1174.39 1176.24 1178.089 1179.938 1181.786 1183.634 1185.482 1187.329 1189.177 1191.024 1192.871 1194.719 1196.567 1198.415 1200.264 1202.113 1203.964 1205.814 1207.666 1209.519 1211.372 1213.227 1215.084 1216.941 1218.8 1220.661 1222.523 1224.388 1226.254 1228.122 1229.993 1231.865 1233.74 1235.618 1237.498 1239.382 1241.267 1243.156 1245.049 1246.944 1248.843 1250.745 1252.651 1254.561 1256.475 1258.393 1260.316 1262.242 1264.174 1266.11 1268.051 1269.997 1271.948 1273.905 1275.868 1277.836 1279.81 1281.79 1283.777 1285.771 1287.771 1289.778 1291.792 1293.814 1295.844 1297.881 1299.927 1301.981 1304.044 1306.116 1308.197 1310.288 1312.388 1314.499 1316.62 1318.752 1320.895 1323.05 1325.217 1327.396 1329.588 1331.793 1334.011 1336.244 1338.491 1340.753 1343.031 1345.324 1347.635 1349.962 1352.308 1354.671 1357.054 1359.457 1361.881 1364.325 1366.793 1369.283 1371.797 1374.336 1376.901 1379.493 1382.114 1384.763 1387.444 1390.157 1392.903 1395.684 1398.502 1401.359 1404.256 1407.196 1410.18 1413.211 1416.291 1419.424 1422.612 1425.857 1429.165 1432.538 1435.98 1439.496 1443.09 1446.768 1450.536 1454.399 1458.364 1462.44 1466.633 1470.954 1475.412 1480.017 1484.782 1489.718 1494.841 1500.164 1505.703 1511.474 1517.492 1523.773 1530.329 1537.173 1544.309 1551.736 1559.445 1567.417 1575.629 1584.047 1592.635 1601.353 1610.165 1619.037 1627.941 1636.854 1645.76 1654.645 1663.498 1672.313 1681.084 1689.806 1698.474 1707.085 1715.636 1724.123 1732.541 1740.888 1749.162 1757.357 1765.47 1773.497 1781.434 1789.276 1797.019 1804.655 1812.18 1819.586 1826.865 1834.008 1841 1847.831 1854.489 1860.951 1867.195 1874.085 1889.258 1889.258 1889.258)
    300 (930.7569 932.9187 935.7687 938.705 941.6395 944.5554 947.4513 950.327 953.1826 956.0184 958.8347 961.6318 964.41 967.1696 969.9109 972.6343 975.3399 978.0282 980.6994 983.3538 985.9917 988.6134 991.2192 993.8094 996.3841 998.9437 1001.489 1004.019 1006.535 1009.037 1011.524 1013.999 1016.46 1018.908 1021.343 1023.765 1026.175 1028.573 1030.959 1033.333 1035.696 1038.047 1040.387 1042.717 1045.036 1047.344 1049.643 1051.931 1054.209 1056.478 1058.737 1060.987 1063.228 1065.46 1067.684 1069.898 1072.105 1074.303 1076.494 1078.676 1080.851 1083.018 1085.178 1087.331 1089.477 1091.615 1093.747 1095.873 1097.992 1100.105 1102.212 1104.312 1106.407 1108.496 1110.58 1112.658 1114.731 1116.799 1118.861 1120.919 1122.972 1125.021 1127.064 1129.104 1131.139 1133.17 1135.197 1137.22 1139.24 1141.256 1143.268 1145.277 1147.282 1149.284 1151.284 1153.28 1155.273 1157.264 1159.252 1161.238 1163.221 1165.202 1167.18 1169.157 1171.132 1173.105 1175.076 1177.045 1179.013 1180.98 1182.945 1184.909 1186.872 1188.834 1190.796 1192.756 1194.716 1196.675 1198.634 1200.593 1202.551 1204.509 1206.467 1208.426 1210.384 1212.343 1214.303 1216.263 1218.223 1220.185 1222.147 1224.111 1226.075 1228.041 1230.009 1231.978 1233.948 1235.92 1237.895 1239.871 1241.849 1243.83 1245.813 1247.799 1249.787 1251.778 1253.772 1255.77 1257.77 1259.774 1261.782 1263.793 1265.808 1267.827 1269.851 1271.878 1273.911 1275.948 1277.989 1280.036 1282.089 1284.146 1286.209 1288.279 1290.354 1292.435 1294.523 1296.617 1298.719 1300.827 1302.943 1305.067 1307.198 1309.337 1311.485 1313.642 1315.807 1317.982 1320.166 1322.36 1324.565 1326.779 1329.005 1331.242 1333.491 1335.751 1338.024 1340.31 1342.608 1344.921 1347.248 1349.589 1351.946 1354.318 1356.706 1359.111 1361.534 1363.975 1366.434 1368.913 1371.412 1373.931 1376.473 1379.037 1381.624 1384.236 1386.873 1389.537 1392.228 1394.948 1397.697 1400.478 1403.292 1406.139 1409.023 1411.943 1414.903 1417.904 1420.948 1424.038 1427.175 1430.363 1433.604 1436.901 1440.257 1443.677 1447.162 1450.719 1454.351 1458.063 1461.86 1465.749 1469.735 1473.827 1478.031 1482.356 1486.811 1491.408 1496.157 1501.071 1506.163 1511.449 1516.944 1522.667 1528.635 1534.868 1541.387 1548.206 1555.342 1562.807 1570.605 1578.733 1587.178 1595.918 1604.919 1614.139 1623.534 1633.057 1642.665 1652.323 1661.999 1671.671 1681.321 1690.936 1700.508 1710.03 1719.496 1728.904 1738.25 1747.531 1756.745 1765.889 1774.961 1783.96 1792.883 1801.728 1810.492 1819.175 1827.773 1836.285 1844.707 1853.037 1861.273 1869.411 1877.448 1885.381 1893.205 1900.914 1908.504 1915.968 1923.301 1930.494 1937.54 1944.425 1951.136 1957.656 1969.413 1981.346 1981.346 1981.346)
    300 (926.1021 928.5647 931.743 934.9884 938.2222 941.4317 944.6148 947.7724 950.9047 954.0123 957.0956 960.1548 963.1906 966.2032 969.193 972.1606 975.1063 978.0304 980.9335 983.8158 986.6778 989.5199 992.3424 995.1458 997.9303 1000.696 1003.444 1006.174 1008.887 1011.582 1014.261 1016.923 1019.569 1022.199 1024.814 1027.413 1029.997 1032.567 1035.122 1037.664 1040.191 1042.706 1045.206 1047.694 1050.17 1052.633 1055.084 1057.522 1059.95 1062.366 1064.77 1067.164 1069.547 1071.92 1074.282 1076.635 1078.977 1081.311 1083.634 1085.949 1088.254 1090.551 1092.839 1095.119 1097.391 1099.655 1101.911 1104.159 1106.4 1108.634 1110.86 1113.08 1115.293 1117.499 1119.699 1121.893 1124.081 1126.263 1128.439 1130.609 1132.774 1134.934 1137.088 1139.238 1141.382 1143.522 1145.657 1147.788 1149.915 1152.038 1154.156 1156.271 1158.382 1160.489 1162.593 1164.693 1166.791 1168.885 1170.976 1173.065 1175.151 1177.234 1179.315 1181.393 1183.47 1185.544 1187.616 1189.687 1191.756 1193.823 1195.889 1197.954 1200.017 1202.08 1204.141 1206.202 1208.262 1210.321 1212.381 1214.439 1216.498 1218.556 1220.615 1222.674 1224.733 1226.792 1228.853 1230.913 1232.975 1235.038 1237.102 1239.167 1241.233 1243.301 1245.371 1247.442 1249.516 1251.591 1253.669 1255.749 1257.832 1259.917 1262.005 1264.096 1266.19 1268.288 1270.389 1272.493 1274.602 1276.714 1278.831 1280.952 1283.077 1285.207 1287.342 1289.482 1291.628 1293.779 1295.935 1298.098 1300.266 1302.441 1304.622 1306.811 1309.006 1311.209 1313.419 1315.637 1317.863 1320.097 1322.34 1324.592 1326.854 1329.124 1331.405 1333.696 1335.997 1338.31 1340.633 1342.969 1345.316 1347.676 1350.049 1352.435 1354.835 1357.25 1359.679 1362.124 1364.584 1367.061 1369.555 1372.067 1374.597 1377.146 1379.715 1382.304 1384.914 1387.547 1390.203 1392.882 1395.587 1398.317 1401.075 1403.86 1406.675 1409.52 1412.398 1415.308 1418.254 1421.237 1424.257 1427.318 1430.421 1433.569 1436.763 1440.007 1443.302 1446.652 1450.06 1453.529 1457.063 1460.665 1464.341 1468.095 1471.931 1475.856 1479.876 1483.998 1488.229 1492.577 1497.052 1501.663 1506.423 1511.342 1516.435 1521.717 1527.204 1532.915 1538.87 1545.091 1551.599 1558.417 1565.567 1573.069 1580.94 1589.188 1597.816 1606.812 1616.152 1625.8 1635.708 1645.822 1656.086 1666.449 1676.866 1687.301 1697.725 1708.118 1718.467 1728.76 1738.992 1749.157 1759.253 1769.276 1779.225 1789.097 1798.892 1808.607 1818.243 1827.797 1837.269 1846.657 1855.961 1865.179 1874.31 1883.354 1892.308 1901.172 1909.945 1918.625 1927.211 1935.701 1944.093 1952.386 1960.576 1968.661 1976.639 1984.507 1992.261 1999.897 2007.41 2014.796 2022.05 2029.158 2036.116 2042.912 2054.626 2068.163 2068.163 2068.163)