FoamFile
{
    version     2.0;
    format      ascii;
    class       dictionary;
    location    "system";
    object      fvSolution;
}
// * * * * * * * * * * * * * * * * * * * * * * * * * * * * * * * * * * * * * //

solvers
{
    U
    {
        solver          PBiCG;
        preconditioner  DILU;
        tolerance       1e-08;
        relTol          0.0;
    }

    p
    {
        solver          GAMG;
        tolerance       1e-10;
        relTol          0.0;
        smoother        GaussSeidel;
        cacheAgglomeration true;
        nCellsInCoarsestLevel 10;
        agglomerator    faceAreaPair;
        mergeLevels     1;
    }
    //p
    //{
    //    solver          PCG;
    //    preconditioner  DIC;
    //    tolerance       1e-10;
    //    relTol          0.0;
    //}

    k
    {
        solver          PBiCG;
        preconditioner  DILU;
        tolerance       1e-08;
        relTol          0.0;
    }

    epsilon
    {
        solver          PBiCG;
        preconditioner  DILU;
        tolerance       1e-08;
        relTol          0.0;
    }

    R
    {
        solver          PBiCG;
        preconditioner  DILU;
        tolerance       1e-08;
        relTol          0.0;
    }

    nuTilda
    {
        solver          PBiCG;
        preconditioner  DILU;
        tolerance       1e-08;
        relTol          0.0;
    }

    z
    {
        solver          PBiCG;
        preconditioner  DILU;
        tolerance       1e-08;
        relTol          0.0;
    }
}

SIMPLE
{
    nOuterCorrectors          50;
    nCorrectors               1;
    nNonOrthogonalCorrectors  0;
    momentumPredictor         yes;
    pRefCell 0;
    pRefValue 0;
}

relaxationFactors
{
    p               0.3;
    U               0.7;
    k               0.1;
    epsilon         0.1;
    R               0.7;
    nuTilda         0.7;
}

// *********************** vim: set ft=cpp et sw=4 : *********************** //
