FoamFile
{
    version     2.0;
    format      ascii;
    class       scalarAverageField;
    object      epsilon;
    note        "Calculated assuming turbulence in equilibrium: epsilon = sqrt(Cmu)*k*|dU/dy|";
}

// * * * * * * * * * * * * * * * * * * * * * * * * * * * * * * * * * * * * * //

// Average
0

(
    // min z
    1.85243599495535e+03
    1.85392207359999e+03
    1.85525457478966e+03
    1.85659112750784e+03
    1.85793172836182e+03
    1.85927637905743e+03
    1.95846106182843e+03
    3.72912928224257e+03
    5.61961615909909e+03
    5.84779023063936e+03
    6.08053382631776e+03
    6.31784695545736e+03
    6.55972961339594e+03
    7.11821187480881e+03
    1.03079057679242e+04
    1.35513457384167e+04
    1.42211286049505e+04
    1.49091536770605e+04
    1.56156727229774e+04
    1.63399304380094e+04
    1.72939330690995e+04
    1.93505884559719e+04
    2.10994110027662e+04
    2.17582148841308e+04
    2.24281733878909e+04
    2.31086664684385e+04
    2.37996653863570e+04
    2.55145537493374e+04
    3.09954624117358e+04
    3.58879690057754e+04
    3.71488858858646e+04
    3.84318528578404e+04
    3.97376433285115e+04
    4.10658770468630e+04
    4.44092108908363e+04
    5.30609422944969e+04
    5.94868706488664e+04
    6.05970265993086e+04
    6.17204975071340e+04
    6.28572833723422e+04
    6.40073840273339e+04
    7.05999974053914e+04
    8.92370746878794e+04
    1.04905496276418e+05
    1.09591952549828e+05
    1.14447746988276e+05
    1.19472804932575e+05
    1.24668318218930e+05
    8.84235013792847e+05
    1.50160409961136e+06
    1.50160409961136e+06

    // max z
    1.85243599495535e+03
    1.85392207359999e+03
    1.85525457478966e+03
    1.85659112750784e+03
    1.85793172836182e+03
    1.85927637905743e+03
    1.95846106182843e+03
    3.72912928224257e+03
    5.61961615909909e+03
    5.84779023063936e+03
    6.08053382631776e+03
    6.31784695545736e+03
    6.55972961339594e+03
    7.11821187480881e+03
    1.03079057679242e+04
    1.35513457384167e+04
    1.42211286049505e+04
    1.49091536770605e+04
    1.56156727229774e+04
    1.63399304380094e+04
    1.72939330690995e+04
    1.93505884559719e+04
    2.10994110027662e+04
    2.17582148841308e+04
    2.24281733878909e+04
    2.31086664684385e+04
    2.37996653863570e+04
    2.55145537493374e+04
    3.09954624117358e+04
    3.58879690057754e+04
    3.71488858858646e+04
    3.84318528578404e+04
    3.97376433285115e+04
    4.10658770468630e+04
    4.44092108908363e+04
    5.30609422944969e+04
    5.94868706488664e+04
    6.05970265993086e+04
    6.17204975071340e+04
    6.28572833723422e+04
    6.40073840273339e+04
    7.05999974053914e+04
    8.92370746878794e+04
    1.04905496276418e+05
    1.09591952549828e+05
    1.14447746988276e+05
    1.19472804932575e+05
    1.24668318218930e+05
    8.84235013792847e+05
    1.50160409961136e+06
    1.50160409961136e+06
)

// *********************** vim: set ft=cpp et sw=4 : *********************** //
