FoamFile
{
    version     2.0;
    format      ascii;
    class       scalarAverageField;
    object      k;
    note        "Computed from Sandia D jet profile, scaled to give same u'/U";
}

// * * * * * * * * * * * * * * * * * * * * * * * * * * * * * * * * * * * * * //

// Average
//25
60

(
    // min z
    5.39801374909871e+00
    5.40188453789753e+00
    5.40576712696410e+00
    5.40966152121293e+00
    5.41356771076045e+00
    5.41748570057572e+00
    5.42141549065873e+00
    5.43752092478376e+00
    5.66284553419176e+00
    5.89277485417720e+00
    6.12730884975384e+00
    6.36644753031598e+00
    6.61019089116602e+00
    6.85853889865405e+00
    7.12250785733879e+00
    7.48224999678828e+00
    7.85206440103336e+00
    8.23195107007400e+00
    8.62191000391023e+00
    9.02194120254203e+00
    9.43204466596941e+00
    9.83290730470756e+00
    1.01444437224275e+01
    1.04611918486069e+01
    1.07831516449519e+01
    1.11103231873681e+01
    1.14427064382438e+01
    1.17803013572379e+01
    1.21418512422979e+01
    1.25758361982715e+01
    1.30176857813748e+01
    1.34673999481013e+01
    1.39249787846462e+01
    1.43904222483207e+01
    1.48637302931657e+01
    1.52896168089594e+01
    1.55768281015650e+01
    1.58675260020825e+01
    1.61617104669470e+01
    1.64593814961587e+01
    1.67605390458313e+01
    1.70651832539628e+01
    1.75264335405583e+01
    1.83148612050952e+01
    1.91329457355548e+01
    1.99806872834717e+01
    2.08580857799671e+01
    2.17651412547165e+01
    2.27018536323710e+01
    1.20729400306737e+01
    0.00000000000000e+00

    // max z
    5.39801374909871e+00
    5.40188453789753e+00
    5.40576712696410e+00
    5.40966152121293e+00
    5.41356771076045e+00
    5.41748570057572e+00
    5.42141549065873e+00
    5.43752092478376e+00
    5.66284553419176e+00
    5.89277485417720e+00
    6.12730884975384e+00
    6.36644753031598e+00
    6.61019089116602e+00
    6.85853889865405e+00
    7.12250785733879e+00
    7.48224999678828e+00
    7.85206440103336e+00
    8.23195107007400e+00
    8.62191000391023e+00
    9.02194120254203e+00
    9.43204466596941e+00
    9.83290730470756e+00
    1.01444437224275e+01
    1.04611918486069e+01
    1.07831516449519e+01
    1.11103231873681e+01
    1.14427064382438e+01
    1.17803013572379e+01
    1.21418512422979e+01
    1.25758361982715e+01
    1.30176857813748e+01
    1.34673999481013e+01
    1.39249787846462e+01
    1.43904222483207e+01
    1.48637302931657e+01
    1.52896168089594e+01
    1.55768281015650e+01
    1.58675260020825e+01
    1.61617104669470e+01
    1.64593814961587e+01
    1.67605390458313e+01
    1.70651832539628e+01
    1.75264335405583e+01
    1.83148612050952e+01
    1.91329457355548e+01
    1.99806872834717e+01
    2.08580857799671e+01
    2.17651412547165e+01
    2.27018536323710e+01
    1.20729400306737e+01
    0.00000000000000e+00
)

// *********************** vim: set ft=cpp et sw=4 : *********************** //
