FoamFile
{
    version     2.0;
    format      ascii;
    class       vectorAverageField;
    object      U;
    note        "Data scaled from Sandia D jet profile to give Ub=53m/s";
}

// * * * * * * * * * * * * * * * * * * * * * * * * * * * * * * * * * * * * * //

// Average
(0 0 0)

(
    // min z
    (6.44640523015394e+01 0 0)
    (6.44038831739901e+01 0 0)
    (6.43437038066302e+01 0 0)
    (6.42835346790809e+01 0 0)
    (6.42233553117210e+01 0 0)
    (6.41631861841718e+01 0 0)
    (6.41030068168119e+01 0 0)
    (6.40365094862630e+01 0 0)
    (6.38625146232071e+01 0 0)
    (6.36885197601511e+01 0 0)
    (6.35145248970952e+01 0 0)
    (6.33405300340393e+01 0 0)
    (6.31665351709833e+01 0 0)
    (6.29925403079274e+01 0 0)
    (6.28025918198337e+01 0 0)
    (6.24850450508702e+01 0 0)
    (6.21674880420960e+01 0 0)
    (6.18499412731325e+01 0 0)
    (6.15323842643583e+01 0 0)
    (6.12148272555841e+01 0 0)
    (6.08972804866206e+01 0 0)
    (6.05718695430557e+01 0 0)
    (6.02071889255371e+01 0 0)
    (5.98425185478293e+01 0 0)
    (5.94778379303108e+01 0 0)
    (5.91131573127923e+01 0 0)
    (5.87484766952738e+01 0 0)
    (5.83838063175660e+01 0 0)
    (5.79889796974087e+01 0 0)
    (5.74886318282054e+01 0 0)
    (5.69882737191914e+01 0 0)
    (5.64879258499881e+01 0 0)
    (5.59875779807848e+01 0 0)
    (5.54872301115815e+01 0 0)
    (5.49868822423782e+01 0 0)
    (5.44395234023480e+01 0 0)
    (5.37699319422437e+01 0 0)
    (5.31003507219502e+01 0 0)
    (5.24307592618459e+01 0 0)
    (5.17611780415523e+01 0 0)
    (5.10915865814481e+01 0 0)
    (5.04220053611545e+01 0 0)
    (4.96408511637036e+01 0 0)
    (4.86365612517487e+01 0 0)
    (4.76322713397937e+01 0 0)
    (4.66279711880281e+01 0 0)
    (4.56236812760732e+01 0 0)
    (4.46193913641183e+01 0 0)
    (4.36151014521633e+01 0 0)
    (3.09609584511972e+01 0 0)
    (0.00000000000000e+00 0 0)

    // max z
    (6.44640523015394e+01 0 0)
    (6.44038831739901e+01 0 0)
    (6.43437038066302e+01 0 0)
    (6.42835346790809e+01 0 0)
    (6.42233553117210e+01 0 0)
    (6.41631861841718e+01 0 0)
    (6.41030068168119e+01 0 0)
    (6.40365094862630e+01 0 0)
    (6.38625146232071e+01 0 0)
    (6.36885197601511e+01 0 0)
    (6.35145248970952e+01 0 0)
    (6.33405300340393e+01 0 0)
    (6.31665351709833e+01 0 0)
    (6.29925403079274e+01 0 0)
    (6.28025918198337e+01 0 0)
    (6.24850450508702e+01 0 0)
    (6.21674880420960e+01 0 0)
    (6.18499412731325e+01 0 0)
    (6.15323842643583e+01 0 0)
    (6.12148272555841e+01 0 0)
    (6.08972804866206e+01 0 0)
    (6.05718695430557e+01 0 0)
    (6.02071889255371e+01 0 0)
    (5.98425185478293e+01 0 0)
    (5.94778379303108e+01 0 0)
    (5.91131573127923e+01 0 0)
    (5.87484766952738e+01 0 0)
    (5.83838063175660e+01 0 0)
    (5.79889796974087e+01 0 0)
    (5.74886318282054e+01 0 0)
    (5.69882737191914e+01 0 0)
    (5.64879258499881e+01 0 0)
    (5.59875779807848e+01 0 0)
    (5.54872301115815e+01 0 0)
    (5.49868822423782e+01 0 0)
    (5.44395234023480e+01 0 0)
    (5.37699319422437e+01 0 0)
    (5.31003507219502e+01 0 0)
    (5.24307592618459e+01 0 0)
    (5.17611780415523e+01 0 0)
    (5.10915865814481e+01 0 0)
    (5.04220053611545e+01 0 0)
    (4.96408511637036e+01 0 0)
    (4.86365612517487e+01 0 0)
    (4.76322713397937e+01 0 0)
    (4.66279711880281e+01 0 0)
    (4.56236812760732e+01 0 0)
    (4.46193913641183e+01 0 0)
    (4.36151014521633e+01 0 0)
    (3.09609584511972e+01 0 0)
    (0.00000000000000e+00 0 0)
)

// *********************** vim: set ft=cpp et sw=4 : *********************** //
