FoamFile
{
    version     2.0;
    format      ascii;
    class       scalarListList;
    object      rho;
}

// * * * * * * * * * * * * * * * * * * * * * * * * * * * * * * * * * * * * * //

9
(
    300 (1.2173300e+00 1.1610169e+00 1.1047038e+00 1.0483908e+00 9.9207769e-01 9.3576461e-01 8.7945154e-01 8.2313846e-01 7.6682538e-01 7.1051230e-01 6.5419923e-01 6.2487259e-01 6.0428031e-01 5.8368803e-01 5.6309575e-01 5.4250347e-01 5.2191119e-01 5.0131891e-01 4.8072662e-01 4.6446400e-01 4.5260225e-01 4.4074049e-01 4.2887874e-01 4.1701699e-01 4.0515523e-01 3.9329348e-01 3.8360669e-01 3.7553195e-01 3.6745721e-01 3.5938247e-01 3.5130773e-01 3.4323299e-01 3.3515825e-01 3.2898586e-01 3.2311035e-01 3.1723485e-01 3.1135934e-01 3.0548384e-01 2.9960833e-01 2.9373283e-01 2.8913329e-01 2.8470267e-01 2.8027205e-01 2.7584144e-01 2.7141082e-01 2.6698021e-01 2.6254959e-01 2.5869955e-01 2.5524193e-01 2.5178430e-01 2.4832668e-01 2.4486906e-01 2.4141143e-01 2.3795381e-01 2.3486104e-01 2.3205856e-01 2.2925608e-01 2.2645360e-01 2.2365112e-01 2.2084864e-01 2.1806471e-01 2.1572867e-01 2.1339263e-01 2.1105660e-01 2.0872056e-01 2.0638453e-01 2.0404849e-01 2.0199502e-01 2.0002349e-01 1.9805197e-01 1.9608045e-01 1.9410892e-01 1.9213740e-01 1.9030980e-01 1.8864301e-01 1.8697622e-01 1.8530942e-01 1.8364263e-01 1.8197584e-01 1.8035738e-01 1.7894693e-01 1.7753648e-01 1.7612602e-01 1.7471557e-01 1.7330512e-01 1.7200853e-01 1.7080367e-01 1.6959882e-01 1.6839396e-01 1.6720872e-01 1.6616190e-01 1.6511508e-01 1.6406827e-01 1.6311235e-01 1.6219141e-01 1.6127047e-01 1.6044716e-01 1.5963368e-01 1.5886461e-01 1.5814605e-01 1.5745425e-01 1.5682108e-01 1.5621555e-01 1.5566035e-01 1.5514475e-01 1.5466047e-01 1.5423530e-01 1.5383892e-01 1.5347749e-01 1.5316870e-01 1.5289284e-01 1.5265274e-01 1.5244836e-01 1.5227861e-01 1.5214218e-01 1.5203639e-01 1.5196233e-01 1.5191436e-01 1.5189412e-01 1.5189644e-01 1.5192039e-01 1.5196431e-01 1.5202599e-01 1.5210406e-01 1.5219751e-01 1.5230625e-01 1.5243080e-01 1.5257206e-01 1.5273111e-01 1.5290873e-01 1.5310551e-01 1.5332026e-01 1.5355176e-01 1.5379821e-01 1.5405786e-01 1.5432853e-01 1.5460855e-01 1.5489621e-01 1.5519009e-01 1.5548923e-01 1.5579264e-01 1.5609948e-01 1.5640958e-01 1.5672206e-01 1.5703664e-01 1.5735310e-01 1.5767106e-01 1.5799010e-01 1.5831064e-01 1.5863203e-01 1.5895404e-01 1.5927706e-01 1.5960043e-01 1.5992428e-01 1.6024841e-01 1.6057266e-01 1.6089710e-01 1.6122149e-01 1.6154582e-01 1.6186981e-01 1.6219360e-01 1.6251690e-01 1.6283975e-01 1.6316226e-01 1.6348383e-01 1.6380504e-01 1.6412530e-01 1.6444487e-01 1.6476374e-01 1.6508144e-01 1.6539870e-01 1.6571440e-01 1.6602992e-01 1.6634353e-01 1.6665713e-01 1.6696876e-01 1.6728036e-01 1.6759012e-01 1.6789955e-01 1.6820772e-01 1.6851496e-01 1.6882188e-01 1.6912699e-01 1.6943209e-01 1.6973610e-01 1.7003922e-01 1.7034234e-01 1.7064428e-01 1.7094593e-01 1.7124758e-01 1.7154840e-01 1.7184920e-01 1.7215001e-01 1.7245086e-01 1.7275171e-01 1.7305307e-01 1.7335486e-01 1.7365674e-01 1.7396043e-01 1.7426412e-01 1.7456977e-01 1.7487633e-01 1.7518465e-01 1.7549505e-01 1.7580720e-01 1.7612239e-01 1.7643980e-01 1.7676092e-01 1.7708531e-01 1.7741343e-01 1.7774691e-01 1.7808337e-01 1.7842836e-01 1.7877644e-01 1.7913384e-01 1.7949789e-01 1.7986843e-01 1.8025239e-01 1.8064301e-01 1.8104676e-01 1.8146454e-01 1.8189139e-01 1.8234049e-01 1.8280446e-01 1.8328221e-01 1.8379197e-01 1.8431933e-01 1.8486895e-01 1.8545889e-01 1.8607476e-01 1.8671931e-01 1.8741937e-01 1.8815890e-01 1.8894195e-01 1.8977432e-01 1.9068080e-01 1.9165046e-01 1.9268926e-01 1.9380523e-01 1.9500610e-01 1.9629924e-01 1.9769332e-01 1.9919508e-01 2.0081119e-01 2.0254901e-01 2.0441452e-01 2.0641327e-01 2.0855095e-01 2.1083269e-01 2.1326298e-01 2.1584605e-01 2.1858581e-01 2.2149806e-01 2.2457398e-01 2.2781669e-01 2.3122967e-01 2.3481635e-01 2.3858071e-01 2.4252730e-01 2.4666103e-01 2.5098787e-01 2.5551507e-01 2.6024998e-01 2.6520100e-01 2.7037871e-01 2.7579364e-01 2.8145745e-01 2.8738452e-01 2.9358910e-01 3.0008823e-01 3.0690272e-01 3.1405382e-01 3.2156640e-01 3.2946600e-01 3.3777673e-01 3.4652108e-01 3.5584064e-01 3.6573994e-01 3.7620594e-01 3.8721390e-01 3.9916545e-01 4.1192671e-01 4.2524196e-01 4.4025913e-01 4.5553250e-01 4.7333607e-01 4.9113965e-01 5.1252837e-01 5.3447613e-01 5.5869444e-01 5.8787449e-01 6.1705454e-01 6.5014420e-01 6.9381041e-01 7.3747662e-01 7.8114283e-01 8.4978265e-01 9.2701877e-01 1.0042549e+00 1.0814910e+00)
    300 (1.2173300e+00 1.1414512e+00 1.0655724e+00 9.8969360e-01 9.1381480e-01 8.4414157e-01 8.0408899e-01 7.6403640e-01 7.2398382e-01 6.8393124e-01 6.4928339e-01 6.2462256e-01 5.9996172e-01 5.7530089e-01 5.5064006e-01 5.3030243e-01 5.1362277e-01 4.9694311e-01 4.8026345e-01 4.6358379e-01 4.5041330e-01 4.3837177e-01 4.2633024e-01 4.1428871e-01 4.0227205e-01 3.9314379e-01 3.8401552e-01 3.7488725e-01 3.6575899e-01 3.5719645e-01 3.5000989e-01 3.4282333e-01 3.3563677e-01 3.2845021e-01 3.2206710e-01 3.1624784e-01 3.1042857e-01 3.0460931e-01 2.9879004e-01 2.9385720e-01 2.8904787e-01 2.8423854e-01 2.7942920e-01 2.7472844e-01 2.7069068e-01 2.6665292e-01 2.6261516e-01 2.5857740e-01 2.5475591e-01 2.5132044e-01 2.4788497e-01 2.4444949e-01 2.4101402e-01 2.3785075e-01 2.3488683e-01 2.3192290e-01 2.2895897e-01 2.2599505e-01 2.2338013e-01 2.2078182e-01 2.1818352e-01 2.1558522e-01 2.1317573e-01 2.1085820e-01 2.0854066e-01 2.0622313e-01 2.0409363e-01 2.0199273e-01 1.9989183e-01 1.9788282e-01 1.9595515e-01 1.9402749e-01 1.9217499e-01 1.9039250e-01 1.8861001e-01 1.8692212e-01 1.8526608e-01 1.8362626e-01 1.8208462e-01 1.8054299e-01 1.7906812e-01 1.7763286e-01 1.7621694e-01 1.7488250e-01 1.7354805e-01 1.7229145e-01 1.7105439e-01 1.6985811e-01 1.6871641e-01 1.6758140e-01 1.6653402e-01 1.6548663e-01 1.6450694e-01 1.6355333e-01 1.6263490e-01 1.6177525e-01 1.6091727e-01 1.6015235e-01 1.5938743e-01 1.5868337e-01 1.5801492e-01 1.5736441e-01 1.5679501e-01 1.5622561e-01 1.5572061e-01 1.5525304e-01 1.5478548e-01 1.5441722e-01 1.5405302e-01 1.5370611e-01 1.5344252e-01 1.5317893e-01 1.5294677e-01 1.5277348e-01 1.5260018e-01 1.5247590e-01 1.5237526e-01 1.5229280e-01 1.5224491e-01 1.5221366e-01 1.5220244e-01 1.5221404e-01 1.5224353e-01 1.5228913e-01 1.5235108e-01 1.5243001e-01 1.5252741e-01 1.5264464e-01 1.5278287e-01 1.5294417e-01 1.5312731e-01 1.5333162e-01 1.5355527e-01 1.5379599e-01 1.5405136e-01 1.5431875e-01 1.5459670e-01 1.5488289e-01 1.5517563e-01 1.5547431e-01 1.5577715e-01 1.5608389e-01 1.5639362e-01 1.5670563e-01 1.5702001e-01 1.5733595e-01 1.5765323e-01 1.5797182e-01 1.5829128e-01 1.5861157e-01 1.5893245e-01 1.5925383e-01 1.5957561e-01 1.5989755e-01 1.6021972e-01 1.6054181e-01 1.6086386e-01 1.6118581e-01 1.6150753e-01 1.6182893e-01 1.6214993e-01 1.6247059e-01 1.6279069e-01 1.6311035e-01 1.6342942e-01 1.6374787e-01 1.6406567e-01 1.6438287e-01 1.6469941e-01 1.6501531e-01 1.6533064e-01 1.6564527e-01 1.6595920e-01 1.6627256e-01 1.6658540e-01 1.6689769e-01 1.6720938e-01 1.6752074e-01 1.6783168e-01 1.6814232e-01 1.6845282e-01 1.6876300e-01 1.6907322e-01 1.6938349e-01 1.6969397e-01 1.7000454e-01 1.7031583e-01 1.7062724e-01 1.7093990e-01 1.7125286e-01 1.7156749e-01 1.7188286e-01 1.7220002e-01 1.7251869e-01 1.7283910e-01 1.7316223e-01 1.7348664e-01 1.7381560e-01 1.7414637e-01 1.7448091e-01 1.7481984e-01 1.7516171e-01 1.7550972e-01 1.7586283e-01 1.7622037e-01 1.7658563e-01 1.7695829e-01 1.7733755e-01 1.7772447e-01 1.7812364e-01 1.7853222e-01 1.7895125e-01 1.7938185e-01 1.7982835e-01 1.8029073e-01 1.8076917e-01 1.8126531e-01 1.8178094e-01 1.8231811e-01 1.8288198e-01 1.8347382e-01 1.8409479e-01 1.8474783e-01 1.8543617e-01 1.8616347e-01 1.8693335e-01 1.8774964e-01 1.8861646e-01 1.8953807e-01 1.9051883e-01 1.9156331e-01 1.9267602e-01 1.9386638e-01 1.9513818e-01 1.9649312e-01 1.9793538e-01 1.9946877e-01 2.0109784e-01 2.0284054e-01 2.0468603e-01 2.0663729e-01 2.0869681e-01 2.1088600e-01 2.1318886e-01 2.1560695e-01 2.1814852e-01 2.2082348e-01 2.2361913e-01 2.2653743e-01 2.2959357e-01 2.3278541e-01 2.3610788e-01 2.3956469e-01 2.4316002e-01 2.4690174e-01 2.5079908e-01 2.5484721e-01 2.5905039e-01 2.6341542e-01 2.6796819e-01 2.7270127e-01 2.7761534e-01 2.8270635e-01 2.8798653e-01 2.9355128e-01 2.9930512e-01 3.0524908e-01 3.1157650e-01 3.1806248e-01 3.2493771e-01 3.3207930e-01 3.3958508e-01 3.4744558e-01 3.5575137e-01 3.6434632e-01 3.7369739e-01 3.8304847e-01 3.9367384e-01 4.0444510e-01 4.1574993e-01 4.2856560e-01 4.4138127e-01 4.5512479e-01 4.7114089e-01 4.8715699e-01 5.0317309e-01 5.2414758e-01 5.4586467e-01 5.6758176e-01 5.8929884e-01 6.2072646e-01 6.5447076e-01 6.8821507e-01 7.2195937e-01 7.5795330e-01 8.2266084e-01 8.8736838e-01 9.5207592e-01 1.0167835e+00 1.0814910e+00)
    300 (1.2173300e+00 1.1449053e+00 1.0724807e+00 1.0000560e+00 9.2763134e-01 8.5520667e-01 7.9834539e-01 7.6243627e-01 7.2652716e-01 6.9061804e-01 6.5470893e-01 6.1950807e-01 5.9773003e-01 5.7595200e-01 5.5417396e-01 5.3239593e-01 5.1061789e-01 4.9550714e-01 4.8067182e-01 4.6583651e-01 4.5100119e-01 4.3648496e-01 4.2563486e-01 4.1478476e-01 4.0393465e-01 3.9308455e-01 3.8295850e-01 3.7464070e-01 3.6632290e-01 3.5800509e-01 3.4968729e-01 3.4223762e-01 3.3565156e-01 3.2906549e-01 3.2247943e-01 3.1589336e-01 3.1010126e-01 3.0479228e-01 2.9948331e-01 2.9417434e-01 2.8886537e-01 2.8397812e-01 2.7967254e-01 2.7536697e-01 2.7106139e-01 2.6675582e-01 2.6245024e-01 2.5869480e-01 2.5517955e-01 2.5166430e-01 2.4814905e-01 2.4463381e-01 2.4111856e-01 2.3803178e-01 2.3510724e-01 2.3218270e-01 2.2925816e-01 2.2633362e-01 2.2346414e-01 2.2096618e-01 2.1846822e-01 2.1597026e-01 2.1347230e-01 2.1101644e-01 2.0883728e-01 2.0665812e-01 2.0447896e-01 2.0229981e-01 2.0026088e-01 1.9833662e-01 1.9641235e-01 1.9448809e-01 1.9261426e-01 1.9090385e-01 1.8919343e-01 1.8748302e-01 1.8580178e-01 1.8427560e-01 1.8274943e-01 1.8122326e-01 1.7975019e-01 1.7838558e-01 1.7702097e-01 1.7565636e-01 1.7439972e-01 1.7317908e-01 1.7195844e-01 1.7079046e-01 1.6970011e-01 1.6860976e-01 1.6755107e-01 1.6658025e-01 1.6560942e-01 1.6467197e-01 1.6381192e-01 1.6295187e-01 1.6214246e-01 1.6138577e-01 1.6062908e-01 1.5995113e-01 1.5929136e-01 1.5865314e-01 1.5808469e-01 1.5751624e-01 1.5701069e-01 1.5652695e-01 1.5607251e-01 1.5566411e-01 1.5527295e-01 1.5492861e-01 1.5460601e-01 1.5431473e-01 1.5405829e-01 1.5382542e-01 1.5361908e-01 1.5343937e-01 1.5328505e-01 1.5315419e-01 1.5304512e-01 1.5295628e-01 1.5288604e-01 1.5283337e-01 1.5279772e-01 1.5277904e-01 1.5277779e-01 1.5279858e-01 1.5284163e-01 1.5290998e-01 1.5300669e-01 1.5313171e-01 1.5328456e-01 1.5346405e-01 1.5366698e-01 1.5389046e-01 1.5413246e-01 1.5438849e-01 1.5465658e-01 1.5493499e-01 1.5522075e-01 1.5551358e-01 1.5581103e-01 1.5611327e-01 1.5641857e-01 1.5672658e-01 1.5703711e-01 1.5734931e-01 1.5766298e-01 1.5797777e-01 1.5829353e-01 1.5861015e-01 1.5892748e-01 1.5924523e-01 1.5956334e-01 1.5988176e-01 1.6020048e-01 1.6051937e-01 1.6083845e-01 1.6115761e-01 1.6147687e-01 1.6179621e-01 1.6211566e-01 1.6243522e-01 1.6275498e-01 1.6307489e-01 1.6339496e-01 1.6371534e-01 1.6403611e-01 1.6435725e-01 1.6467882e-01 1.6500116e-01 1.6532399e-01 1.6564760e-01 1.6597240e-01 1.6629776e-01 1.6662510e-01 1.6695327e-01 1.6728314e-01 1.6761498e-01 1.6794802e-01 1.6828449e-01 1.6862246e-01 1.6896346e-01 1.6930786e-01 1.6965456e-01 1.7000579e-01 1.7036106e-01 1.7071976e-01 1.7108387e-01 1.7145383e-01 1.7182870e-01 1.7220898e-01 1.7259796e-01 1.7299409e-01 1.7339762e-01 1.7380922e-01 1.7423141e-01 1.7466500e-01 1.7510938e-01 1.7556550e-01 1.7603448e-01 1.7651757e-01 1.7701905e-01 1.7753749e-01 1.7807427e-01 1.7863108e-01 1.7920964e-01 1.7981177e-01 1.8043950e-01 1.8109505e-01 1.8178068e-01 1.8249870e-01 1.8325156e-01 1.8404160e-01 1.8487085e-01 1.8574161e-01 1.8665729e-01 1.8762546e-01 1.8864291e-01 1.8971187e-01 1.9083658e-01 1.9202584e-01 1.9327363e-01 1.9458271e-01 1.9596595e-01 1.9741358e-01 1.9893096e-01 2.0052648e-01 2.0219129e-01 2.0393369e-01 2.0575605e-01 2.0765182e-01 2.0962850e-01 2.1168900e-01 2.1382652e-01 2.1604231e-01 2.1834505e-01 2.2073271e-01 2.2320233e-01 2.2575527e-01 2.2839310e-01 2.3111753e-01 2.3393000e-01 2.3683240e-01 2.3982634e-01 2.4291383e-01 2.4609720e-01 2.4937893e-01 2.5276184e-01 2.5624901e-01 2.5984398e-01 2.6355041e-01 2.6737234e-01 2.7131367e-01 2.7537816e-01 2.7956916e-01 2.8388829e-01 2.8836604e-01 2.9300343e-01 2.9778585e-01 3.0270840e-01 3.0783172e-01 3.1315660e-01 3.1862676e-01 3.2433942e-01 3.3028729e-01 3.3636221e-01 3.4285459e-01 3.4948045e-01 3.5646400e-01 3.6371780e-01 3.7127641e-01 3.7924343e-01 3.8748690e-01 3.9626173e-01 4.0533293e-01 4.1501407e-01 4.2510246e-01 4.3578234e-01 4.4714858e-01 4.5887150e-01 4.7189236e-01 4.8491323e-01 4.9977958e-01 5.1502544e-01 5.3114019e-01 5.4951082e-01 5.6788145e-01 5.8875956e-01 6.1178759e-01 6.3481562e-01 6.6199640e-01 6.9242165e-01 7.2284690e-01 7.5793511e-01 8.0061193e-01 8.4328875e-01 8.8952483e-01 9.5351355e-01 1.0175023e+00 1.0814910e+00)
    300 (1.2173300e+00 1.1393732e+00 1.0614163e+00 9.8345949e-01 9.0550266e-01 8.4813349e-01 8.0511237e-01 7.6209125e-01 7.1907012e-01 6.7969754e-01 6.5233275e-01 6.2496796e-01 5.9760317e-01 5.7023838e-01 5.5102324e-01 5.3197485e-01 5.1292646e-01 4.9387806e-01 4.7900245e-01 4.6490794e-01 4.5081343e-01 4.3671893e-01 4.2513096e-01 4.1424890e-01 4.0336684e-01 3.9248478e-01 3.8323757e-01 3.7456594e-01 3.6589431e-01 3.5722267e-01 3.4965803e-01 3.4257155e-01 3.3548507e-01 3.2839859e-01 3.2207563e-01 3.1617501e-01 3.1027439e-01 3.0437377e-01 2.9896926e-01 2.9399465e-01 2.8902004e-01 2.8404544e-01 2.7930112e-01 2.7507442e-01 2.7084772e-01 2.6662102e-01 2.6239432e-01 2.5871109e-01 2.5510125e-01 2.5149142e-01 2.4788159e-01 2.4439855e-01 2.4129629e-01 2.3819403e-01 2.3509177e-01 2.3198951e-01 2.2911350e-01 2.2642229e-01 2.2373108e-01 2.2103987e-01 2.1834866e-01 2.1597634e-01 2.1361448e-01 2.1125262e-01 2.0889076e-01 2.0669904e-01 2.0460214e-01 2.0250523e-01 2.0040833e-01 1.9844790e-01 1.9656770e-01 1.9468749e-01 1.9280729e-01 1.9109521e-01 1.8939637e-01 1.8769753e-01 1.8607826e-01 1.8453498e-01 1.8299169e-01 1.8149449e-01 1.8008853e-01 1.7868258e-01 1.7731811e-01 1.7603697e-01 1.7475582e-01 1.7352684e-01 1.7236155e-01 1.7119627e-01 1.7010255e-01 1.6904684e-01 1.6799114e-01 1.6703104e-01 1.6608033e-01 1.6514977e-01 1.6430072e-01 1.6345167e-01 1.6265195e-01 1.6190180e-01 1.6115165e-01 1.6047878e-01 1.5982478e-01 1.5918100e-01 1.5862026e-01 1.5805952e-01 1.5753598e-01 1.5706510e-01 1.5659423e-01 1.5618419e-01 1.5579950e-01 1.5541481e-01 1.5510771e-01 1.5480368e-01 1.5451650e-01 1.5428222e-01 1.5404794e-01 1.5385542e-01 1.5367470e-01 1.5352415e-01 1.5338846e-01 1.5327298e-01 1.5317888e-01 1.5310101e-01 1.5303951e-01 1.5299668e-01 1.5297245e-01 1.5296986e-01 1.5299146e-01 1.5304004e-01 1.5311914e-01 1.5322820e-01 1.5336696e-01 1.5353364e-01 1.5372666e-01 1.5394167e-01 1.5417542e-01 1.5442491e-01 1.5468786e-01 1.5496129e-01 1.5524331e-01 1.5553236e-01 1.5582702e-01 1.5612648e-01 1.5642939e-01 1.5673572e-01 1.5704435e-01 1.5735502e-01 1.5766743e-01 1.5798127e-01 1.5829628e-01 1.5861226e-01 1.5892905e-01 1.5924661e-01 1.5956477e-01 1.5988353e-01 1.6020291e-01 1.6052269e-01 1.6084297e-01 1.6116378e-01 1.6148505e-01 1.6180688e-01 1.6212925e-01 1.6245212e-01 1.6277581e-01 1.6310029e-01 1.6342559e-01 1.6375171e-01 1.6407895e-01 1.6440753e-01 1.6473719e-01 1.6506816e-01 1.6540130e-01 1.6573581e-01 1.6607222e-01 1.6641142e-01 1.6675227e-01 1.6709622e-01 1.6744333e-01 1.6779255e-01 1.6814667e-01 1.6850421e-01 1.6886479e-01 1.6923172e-01 1.6960306e-01 1.6997879e-01 1.7036156e-01 1.7075108e-01 1.7114672e-01 1.7154911e-01 1.7196145e-01 1.7238282e-01 1.7281326e-01 1.7325358e-01 1.7370463e-01 1.7416962e-01 1.7464839e-01 1.7514117e-01 1.7564929e-01 1.7617412e-01 1.7671701e-01 1.7727945e-01 1.7786311e-01 1.7846953e-01 1.7910064e-01 1.7975836e-01 1.8044452e-01 1.8116129e-01 1.8191073e-01 1.8269471e-01 1.8351528e-01 1.8437424e-01 1.8527345e-01 1.8621902e-01 1.8721206e-01 1.8825182e-01 1.8934011e-01 1.9048488e-01 1.9168536e-01 1.9293960e-01 1.9425529e-01 1.9563299e-01 1.9706861e-01 1.9857394e-01 2.0014187e-01 2.0177321e-01 2.0347834e-01 2.0524681e-01 2.0708379e-01 2.0899499e-01 2.1097234e-01 2.1301675e-01 2.1514071e-01 2.1733390e-01 2.1959734e-01 2.2193249e-01 2.2434073e-01 2.2682379e-01 2.2938299e-01 2.3201966e-01 2.3473496e-01 2.3753000e-01 2.4040523e-01 2.4336043e-01 2.4639479e-01 2.4951177e-01 2.5273907e-01 2.5605077e-01 2.5944697e-01 2.6292986e-01 2.6654776e-01 2.7025957e-01 2.7406581e-01 2.7798509e-01 2.8205183e-01 2.8622334e-01 2.9049530e-01 2.9496174e-01 2.9954546e-01 3.0423248e-01 3.0916488e-01 3.1420843e-01 3.1942775e-01 3.2487534e-01 3.3042355e-01 3.3632288e-01 3.4226177e-01 3.4865783e-01 3.5505389e-01 3.6199937e-01 3.6895240e-01 3.7647672e-01 3.8411382e-01 3.9221701e-01 4.0071187e-01 4.0930656e-01 4.1890640e-01 4.2850625e-01 4.3877554e-01 4.4984680e-01 4.6091806e-01 4.7323688e-01 4.8635771e-01 4.9947854e-01 5.1412471e-01 5.3029554e-01 5.4646637e-01 5.6285821e-01 5.8408985e-01 6.0532149e-01 6.2655312e-01 6.4815968e-01 6.7925804e-01 7.1035639e-01 7.4145475e-01 7.7255311e-01 8.1042455e-01 8.6463784e-01 9.1885113e-01 9.7306442e-01 1.0272777e+00 1.0814910e+00)
    300 (1.2173300e+00 1.1424594e+00 1.0675889e+00 9.9271835e-01 9.1784779e-01 8.4297724e-01 8.0255169e-01 7.6343054e-01 7.2430939e-01 6.8518823e-01 6.4820174e-01 6.2367842e-01 5.9915510e-01 5.7463179e-01 5.5010847e-01 5.3043137e-01 5.1328789e-01 4.9614442e-01 4.7900094e-01 4.6370191e-01 4.5089519e-01 4.3808846e-01 4.2528173e-01 4.1336820e-01 4.0338842e-01 3.9340864e-01 3.8342886e-01 3.7391872e-01 3.6590896e-01 3.5789920e-01 3.4988944e-01 3.4206034e-01 3.3550146e-01 3.2894258e-01 3.2238369e-01 3.1582481e-01 3.1025199e-01 3.0482215e-01 2.9939231e-01 2.9396247e-01 2.8885695e-01 2.8433871e-01 2.7982048e-01 2.7530224e-01 2.7078400e-01 2.6664049e-01 2.6285903e-01 2.5907757e-01 2.5529612e-01 2.5151466e-01 2.4800426e-01 2.4480166e-01 2.4159906e-01 2.3839646e-01 2.3519386e-01 2.3223713e-01 2.2947529e-01 2.2671345e-01 2.2395161e-01 2.2120568e-01 2.1877867e-01 2.1635166e-01 2.1392466e-01 2.1149765e-01 2.0932716e-01 2.0716312e-01 2.0499908e-01 2.0288498e-01 2.0093768e-01 1.9899038e-01 1.9704307e-01 1.9522625e-01 1.9346492e-01 1.9170359e-01 1.8999616e-01 1.8839860e-01 1.8680104e-01 1.8521659e-01 1.8376564e-01 1.8231470e-01 1.8086375e-01 1.7954214e-01 1.7822403e-01 1.7690592e-01 1.7570621e-01 1.7450956e-01 1.7332230e-01 1.7223781e-01 1.7115331e-01 1.7009888e-01 1.6911873e-01 1.6813857e-01 1.6721464e-01 1.6633217e-01 1.6544969e-01 1.6465314e-01 1.6386272e-01 1.6310253e-01 1.6239920e-01 1.6169586e-01 1.6105866e-01 1.6043753e-01 1.5984045e-01 1.5929584e-01 1.5875122e-01 1.5827016e-01 1.5779456e-01 1.5736102e-01 1.5694515e-01 1.5656588e-01 1.5620112e-01 1.5587662e-01 1.5556544e-01 1.5528319e-01 1.5502458e-01 1.5478280e-01 1.5456472e-01 1.5436775e-01 1.5418624e-01 1.5402103e-01 1.5387518e-01 1.5374616e-01 1.5363338e-01 1.5353806e-01 1.5346238e-01 1.5341180e-01 1.5338720e-01 1.5339228e-01 1.5343041e-01 1.5350223e-01 1.5360716e-01 1.5374367e-01 1.5390899e-01 1.5409988e-01 1.5431309e-01 1.5454497e-01 1.5479260e-01 1.5505306e-01 1.5532439e-01 1.5560461e-01 1.5589191e-01 1.5618518e-01 1.5648358e-01 1.5678618e-01 1.5709227e-01 1.5740133e-01 1.5771328e-01 1.5802769e-01 1.5834421e-01 1.5866255e-01 1.5898297e-01 1.5930520e-01 1.5962911e-01 1.5995469e-01 1.6028192e-01 1.6061077e-01 1.6094179e-01 1.6127477e-01 1.6160947e-01 1.6194592e-01 1.6228558e-01 1.6262725e-01 1.6297098e-01 1.6331813e-01 1.6366834e-01 1.6402129e-01 1.6437751e-01 1.6473846e-01 1.6510306e-01 1.6547159e-01 1.6584450e-01 1.6622383e-01 1.6660826e-01 1.6699823e-01 1.6739421e-01 1.6779669e-01 1.6820801e-01 1.6862710e-01 1.6905457e-01 1.6949103e-01 1.6993718e-01 1.7039391e-01 1.7086201e-01 1.7134234e-01 1.7183588e-01 1.7234439e-01 1.7286805e-01 1.7340777e-01 1.7396497e-01 1.7454055e-01 1.7513601e-01 1.7575246e-01 1.7639195e-01 1.7705620e-01 1.7774610e-01 1.7846287e-01 1.7920788e-01 1.7998233e-01 1.8078780e-01 1.8163058e-01 1.8250709e-01 1.8341856e-01 1.8437066e-01 1.8536343e-01 1.8639518e-01 1.8747200e-01 1.8859386e-01 1.8975798e-01 1.9097406e-01 1.9223529e-01 1.9354570e-01 1.9490811e-01 1.9631719e-01 1.9778295e-01 1.9929787e-01 2.0086435e-01 2.0248757e-01 2.0416067e-01 2.0588704e-01 2.0767154e-01 2.0950777e-01 2.1139675e-01 2.1333932e-01 2.1534122e-01 2.1739840e-01 2.1951066e-01 2.2167862e-01 2.2390252e-01 2.2618259e-01 2.2852152e-01 2.3092507e-01 2.3338826e-01 2.3591113e-01 2.3849388e-01 2.4113683e-01 2.4384355e-01 2.4663096e-01 2.4948307e-01 2.5240048e-01 2.5538356e-01 2.5845275e-01 2.6160476e-01 2.6482837e-01 2.6812321e-01 2.7152311e-01 2.7501367e-01 2.7858116e-01 2.8224300e-01 2.8603175e-01 2.8990128e-01 2.9387268e-01 2.9799322e-01 3.0219564e-01 3.0653864e-01 3.1102742e-01 3.1559577e-01 3.2039353e-01 3.2528972e-01 3.3035483e-01 3.3561522e-01 3.4098095e-01 3.4664719e-01 3.5237529e-01 3.5847348e-01 3.6464497e-01 3.7119697e-01 3.7785240e-01 3.8493811e-01 3.9211207e-01 3.9983571e-01 4.0755934e-01 4.1604529e-01 4.2454706e-01 4.3372764e-01 4.4320230e-01 4.5300969e-01 4.6374001e-01 4.7447034e-01 4.8628683e-01 4.9870521e-01 5.1112359e-01 5.2541698e-01 5.4022609e-01 5.5503519e-01 5.7210352e-01 5.9053504e-01 6.0896656e-01 6.2792308e-01 6.5226605e-01 6.7660903e-01 7.0095200e-01 7.2718258e-01 7.6178825e-01 7.9639391e-01 8.3099957e-01 8.6729579e-01 9.2084459e-01 9.7439339e-01 1.0279422e+00 1.0814910e+00)
    300 (1.2173300e+00 1.1342641e+00 1.0511983e+00 9.6813244e-01 9.0255130e-01 8.5175952e-01 8.0096774e-01 7.5208874e-01 7.1771315e-01 6.8333757e-01 6.4896199e-01 6.2182524e-01 5.9684385e-01 5.7186246e-01 5.5010181e-01 5.3097770e-01 5.1185358e-01 4.9446438e-01 4.7927155e-01 4.6407872e-01 4.5000072e-01 4.3760334e-01 4.2520597e-01 4.1362127e-01 4.0329434e-01 3.9296742e-01 3.8327797e-01 3.7453175e-01 3.6578553e-01 3.5755336e-01 3.5004355e-01 3.4253374e-01 3.3543593e-01 3.2892093e-01 3.2240593e-01 3.1618975e-01 3.1050187e-01 3.0481399e-01 2.9926986e-01 2.9428601e-01 2.8930216e-01 2.8431831e-01 2.7988804e-01 2.7551286e-01 2.7113768e-01 2.6699512e-01 2.6315082e-01 2.5930651e-01 2.5546221e-01 2.5198002e-01 2.4859485e-01 2.4520969e-01 2.4184686e-01 2.3885210e-01 2.3585733e-01 2.3286256e-01 2.2998128e-01 2.2731571e-01 2.2465015e-01 2.2198458e-01 2.1951800e-01 2.1713047e-01 2.1474293e-01 2.1240379e-01 2.1025397e-01 2.0810414e-01 2.0595431e-01 2.0396899e-01 2.0202599e-01 2.0008298e-01 1.9822582e-01 1.9646554e-01 1.9470525e-01 1.9298143e-01 1.9138408e-01 1.8978672e-01 1.8819885e-01 1.8674763e-01 1.8529641e-01 1.8384518e-01 1.8252582e-01 1.8120658e-01 1.7989031e-01 1.7869114e-01 1.7749196e-01 1.7630737e-01 1.7521835e-01 1.7412933e-01 1.7307166e-01 1.7208450e-01 1.7109734e-01 1.7016095e-01 1.6926889e-01 1.6837682e-01 1.6755568e-01 1.6675288e-01 1.6595638e-01 1.6523767e-01 1.6451895e-01 1.6382915e-01 1.6318989e-01 1.6255063e-01 1.6196031e-01 1.6139606e-01 1.6083181e-01 1.6033266e-01 1.5983876e-01 1.5935785e-01 1.5892749e-01 1.5849714e-01 1.5809987e-01 1.5772284e-01 1.5736100e-01 1.5702575e-01 1.5670644e-01 1.5640354e-01 1.5612422e-01 1.5585757e-01 1.5560573e-01 1.5537141e-01 1.5515271e-01 1.5494923e-01 1.5476225e-01 1.5459494e-01 1.5444892e-01 1.5432681e-01 1.5423073e-01 1.5416885e-01 1.5414057e-01 1.5414800e-01 1.5419227e-01 1.5427301e-01 1.5438827e-01 1.5453541e-01 1.5471091e-01 1.5491151e-01 1.5513377e-01 1.5537479e-01 1.5563180e-01 1.5590251e-01 1.5618563e-01 1.5647883e-01 1.5678089e-01 1.5709089e-01 1.5740859e-01 1.5773265e-01 1.5806282e-01 1.5839871e-01 1.5874011e-01 1.5908676e-01 1.5943847e-01 1.5979607e-01 1.6015931e-01 1.6052777e-01 1.6090159e-01 1.6128106e-01 1.6166642e-01 1.6205830e-01 1.6245745e-01 1.6286344e-01 1.6327674e-01 1.6369772e-01 1.6412691e-01 1.6456482e-01 1.6501196e-01 1.6546888e-01 1.6593625e-01 1.6641458e-01 1.6690459e-01 1.6740686e-01 1.6792210e-01 1.6845096e-01 1.6899503e-01 1.6955529e-01 1.7013180e-01 1.7072514e-01 1.7133629e-01 1.7196608e-01 1.7261751e-01 1.7329022e-01 1.7398424e-01 1.7470035e-01 1.7544293e-01 1.7621016e-01 1.7700190e-01 1.7782330e-01 1.7867215e-01 1.7954841e-01 1.8045814e-01 1.8139648e-01 1.8236745e-01 1.8337166e-01 1.8440735e-01 1.8548021e-01 1.8658460e-01 1.8772741e-01 1.8890394e-01 1.9011754e-01 1.9136813e-01 1.9265374e-01 1.9398007e-01 1.9534098e-01 1.9674122e-01 1.9817985e-01 1.9965419e-01 2.0116872e-01 2.0272249e-01 2.0431321e-01 2.0594153e-01 2.0760848e-01 2.0931738e-01 2.1106490e-01 2.1285133e-01 2.1467709e-01 2.1654252e-01 2.1844762e-01 2.2039236e-01 2.2237978e-01 2.2441300e-01 2.2648751e-01 2.2860269e-01 2.3075801e-01 2.3295876e-01 2.3521366e-01 2.3751053e-01 2.3984884e-01 2.4223787e-01 2.4468610e-01 2.4717774e-01 2.4971171e-01 2.5232025e-01 2.5497678e-01 2.5767684e-01 2.6045482e-01 2.6328916e-01 2.6616719e-01 2.6913884e-01 2.7216400e-01 2.7524423e-01 2.7842791e-01 2.8165429e-01 2.8498074e-01 2.8837991e-01 2.9184795e-01 2.9543321e-01 2.9905821e-01 3.0284346e-01 3.0664655e-01 3.1064374e-01 3.1465060e-01 3.1887162e-01 3.2309303e-01 3.2756800e-01 3.3204296e-01 3.3677659e-01 3.4154117e-01 3.4654312e-01 3.5164117e-01 3.5691355e-01 3.6239966e-01 3.6792991e-01 3.7387350e-01 3.7981708e-01 3.8611197e-01 3.9260251e-01 3.9914498e-01 4.0629996e-01 4.1345495e-01 4.2093195e-01 4.2891284e-01 4.3689373e-01 4.4545365e-01 4.5449114e-01 4.6352862e-01 4.7329290e-01 4.8372950e-01 4.9416609e-01 5.0512476e-01 5.1750357e-01 5.2988239e-01 5.4226120e-01 5.5673268e-01 5.7200331e-01 5.8727394e-01 6.0254457e-01 6.2144203e-01 6.4145412e-01 6.6146622e-01 6.8147831e-01 7.0371342e-01 7.3236283e-01 7.6101224e-01 7.8966164e-01 8.1831105e-01 8.5116829e-01 8.9723283e-01 9.4329737e-01 9.8936192e-01 1.0354265e+00 1.0814910e+00)
    300 (1.2173300e+00 1.1445037e+00 1.0716773e+00 9.9885102e-01 9.2602469e-01 8.5319837e-01 7.9987489e-01 7.6278093e-01 7.2568697e-01 6.8859301e-01 6.5149905e-01 6.2251505e-01 5.9902815e-01 5.7554126e-01 5.5205436e-01 5.3019697e-01 5.1343552e-01 4.9667406e-01 4.7991261e-01 4.6412416e-01 4.5136494e-01 4.3860573e-01 4.2584652e-01 4.1410910e-01 4.0401539e-01 3.9392169e-01 3.8382799e-01 3.7480732e-01 3.6660604e-01 3.5840476e-01 3.5020348e-01 3.4303985e-01 3.3624453e-01 3.2944921e-01 3.2265390e-01 3.1678502e-01 3.1107594e-01 3.0536687e-01 2.9965779e-01 2.9471709e-01 2.8987097e-01 2.8502486e-01 2.8017875e-01 2.7592862e-01 2.7178231e-01 2.6763600e-01 2.6348969e-01 2.5975462e-01 2.5618979e-01 2.5262496e-01 2.4906012e-01 2.4569042e-01 2.4261560e-01 2.3954077e-01 2.3646595e-01 2.3339112e-01 2.3071066e-01 2.2804271e-01 2.2537476e-01 2.2270681e-01 2.2024807e-01 2.1790893e-01 2.1556979e-01 2.1323065e-01 2.1104882e-01 2.0897395e-01 2.0689909e-01 2.0482422e-01 2.0293527e-01 2.0107828e-01 1.9922128e-01 1.9742590e-01 1.9575364e-01 1.9408139e-01 1.9240913e-01 1.9089573e-01 1.8938302e-01 1.8787030e-01 1.8647282e-01 1.8509947e-01 1.8372611e-01 1.8245282e-01 1.8120285e-01 1.7995288e-01 1.7880493e-01 1.7766563e-01 1.7653946e-01 1.7550080e-01 1.7446215e-01 1.7346155e-01 1.7251545e-01 1.7156936e-01 1.7068686e-01 1.6982670e-01 1.6897420e-01 1.6819452e-01 1.6741484e-01 1.6666991e-01 1.6596541e-01 1.6526092e-01 1.6461555e-01 1.6398041e-01 1.6336516e-01 1.6279180e-01 1.6221844e-01 1.6169653e-01 1.6117596e-01 1.6069451e-01 1.6021862e-01 1.5978002e-01 1.5935109e-01 1.5894512e-01 1.5855959e-01 1.5818794e-01 1.5783620e-01 1.5750279e-01 1.5718265e-01 1.5687610e-01 1.5658983e-01 1.5631612e-01 1.5605573e-01 1.5580962e-01 1.5558460e-01 1.5537736e-01 1.5519065e-01 1.5502825e-01 1.5489390e-01 1.5479083e-01 1.5472653e-01 1.5469729e-01 1.5470753e-01 1.5475746e-01 1.5484478e-01 1.5496774e-01 1.5512379e-01 1.5530980e-01 1.5552265e-01 1.5575922e-01 1.5601679e-01 1.5629284e-01 1.5658506e-01 1.5689158e-01 1.5721223e-01 1.5754384e-01 1.5788717e-01 1.5823994e-01 1.5860276e-01 1.5897528e-01 1.5935663e-01 1.5974679e-01 1.6014574e-01 1.6055357e-01 1.6097046e-01 1.6139652e-01 1.6183202e-01 1.6227733e-01 1.6273275e-01 1.6319859e-01 1.6367534e-01 1.6416336e-01 1.6466348e-01 1.6517698e-01 1.6570332e-01 1.6624299e-01 1.6679646e-01 1.6736605e-01 1.6795149e-01 1.6855249e-01 1.6917107e-01 1.6980838e-01 1.7046322e-01 1.7113832e-01 1.7183376e-01 1.7254917e-01 1.7328818e-01 1.7404760e-01 1.7483293e-01 1.7563975e-01 1.7647409e-01 1.7733116e-01 1.7821710e-01 1.7912709e-01 1.8006726e-01 1.8103292e-01 1.8202907e-01 1.8305258e-01 1.8410650e-01 1.8518966e-01 1.8630285e-01 1.8744697e-01 1.8862083e-01 1.8982697e-01 1.9106268e-01 1.9233136e-01 1.9363031e-01 1.9496131e-01 1.9632448e-01 1.9771710e-01 1.9914537e-01 2.0060405e-01 2.0209336e-01 2.0361632e-01 2.0517289e-01 2.0676128e-01 2.0838199e-01 2.1003548e-01 2.1172218e-01 2.1344253e-01 2.1519685e-01 2.1698529e-01 2.1880784e-01 2.2066442e-01 2.2255489e-01 2.2448166e-01 2.2645029e-01 2.2845446e-01 2.3049402e-01 2.3256872e-01 2.3468539e-01 2.3684781e-01 2.3904720e-01 2.4128298e-01 2.4356686e-01 2.4589980e-01 2.4827061e-01 2.5068158e-01 2.5315820e-01 2.5567397e-01 2.5822765e-01 2.6085900e-01 2.6353010e-01 2.6624614e-01 2.6904366e-01 2.7187978e-01 2.7478302e-01 2.7775715e-01 2.8076560e-01 2.8388799e-01 2.8704441e-01 2.9029295e-01 2.9360835e-01 2.9699517e-01 3.0048030e-01 3.0402052e-01 3.0768627e-01 3.1139839e-01 3.1525527e-01 3.1916159e-01 3.2321899e-01 3.2734567e-01 3.3161055e-01 3.3598776e-01 3.4046308e-01 3.4512641e-01 3.4980871e-01 3.5480146e-01 3.5979421e-01 3.6505198e-01 3.7042745e-01 3.7591166e-01 3.8173677e-01 3.8756189e-01 3.9376011e-01 4.0012163e-01 4.0650849e-01 4.1352130e-01 4.2053411e-01 4.2775110e-01 4.3557281e-01 4.4339452e-01 4.5153787e-01 4.6039153e-01 4.6924519e-01 4.7835145e-01 4.8856911e-01 4.9878677e-01 5.0900442e-01 5.2078694e-01 5.3289652e-01 5.4500610e-01 5.5756952e-01 5.7249647e-01 5.8742342e-01 6.0235037e-01 6.1753912e-01 6.3709453e-01 6.5664994e-01 6.7620535e-01 6.9576075e-01 7.1834096e-01 7.4623920e-01 7.7413745e-01 8.0203569e-01 8.2993394e-01 8.6133237e-01 9.0536410e-01 9.4939582e-01 9.9342755e-01 1.0374593e+00 1.0814910e+00)