FoamFile
{
    version     2.0;
    format      ascii;
    class       scalarListList;
    object      T;
}

// * * * * * * * * * * * * * * * * * * * * * * * * * * * * * * * * * * * * * //

9
(
    300 (2.9000000e+02 3.1526916e+02 3.4053833e+02 3.6580749e+02 3.9107666e+02 4.1634582e+02 4.4161499e+02 4.6688415e+02 4.9215332e+02 5.1742248e+02 5.4269165e+02 5.6678939e+02 5.9050798e+02 6.1422658e+02 6.3794518e+02 6.6166378e+02 6.8538237e+02 7.0910097e+02 7.3281957e+02 7.5587403e+02 7.7825344e+02 8.0063285e+02 8.2301226e+02 8.4539167e+02 8.6777108e+02 8.9015049e+02 9.1191696e+02 9.3322913e+02 9.5454129e+02 9.7585346e+02 9.9716563e+02 1.0184778e+03 1.0397900e+03 1.0603239e+03 1.0807363e+03 1.1011487e+03 1.1215612e+03 1.1419736e+03 1.1623861e+03 1.1827985e+03 1.2024802e+03 1.2220652e+03 1.2416502e+03 1.2612353e+03 1.2808203e+03 1.3004053e+03 1.3199903e+03 1.3391127e+03 1.3579226e+03 1.3767324e+03 1.3955422e+03 1.4143521e+03 1.4331619e+03 1.4519717e+03 1.4703819e+03 1.4884742e+03 1.5065664e+03 1.5246587e+03 1.5427509e+03 1.5608432e+03 1.5789073e+03 1.5962925e+03 1.6136777e+03 1.6310629e+03 1.6484481e+03 1.6658332e+03 1.6832184e+03 1.6999922e+03 1.7165888e+03 1.7331853e+03 1.7497818e+03 1.7663783e+03 1.7829748e+03 1.7991059e+03 1.8147170e+03 1.8303280e+03 1.8459391e+03 1.8615501e+03 1.8771612e+03 1.8925344e+03 1.9068840e+03 1.9212336e+03 1.9355832e+03 1.9499329e+03 1.9642825e+03 1.9778270e+03 1.9907230e+03 2.0036191e+03 2.0165151e+03 2.0292314e+03 2.0406796e+03 2.0521278e+03 2.0635760e+03 2.0740348e+03 2.0841128e+03 2.0941908e+03 2.1030711e+03 2.1118308e+03 2.1199963e+03 2.1274865e+03 2.1345951e+03 2.1408681e+03 2.1467273e+03 2.1518327e+03 2.1563230e+03 2.1603270e+03 2.1633883e+03 2.1659827e+03 2.1680083e+03 2.1691655e+03 2.1697731e+03 2.1697819e+03 2.1691914e+03 2.1680186e+03 2.1662836e+03 2.1640349e+03 2.1612554e+03 2.1580414e+03 2.1543680e+03 2.1503270e+03 2.1459376e+03 2.1412316e+03 2.1362525e+03 2.1310292e+03 2.1255888e+03 2.1199447e+03 2.1141050e+03 2.1080708e+03 2.1018418e+03 2.0954197e+03 2.0888094e+03 2.0820303e+03 2.0751052e+03 2.0680606e+03 2.0609240e+03 2.0537240e+03 2.0464862e+03 2.0392321e+03 2.0319795e+03 2.0247446e+03 2.0175385e+03 2.0103688e+03 2.0032504e+03 1.9961817e+03 1.9891695e+03 1.9822185e+03 1.9753291e+03 1.9684918e+03 1.9617397e+03 1.9550481e+03 1.9484012e+03 1.9418594e+03 1.9353630e+03 1.9289307e+03 1.9225861e+03 1.9162817e+03 1.9100731e+03 1.9039201e+03 1.8978226e+03 1.8918203e+03 1.8858570e+03 1.8799799e+03 1.8741644e+03 1.8683971e+03 1.8627268e+03 1.8570907e+03 1.8515413e+03 1.8460458e+03 1.8406057e+03 1.8352464e+03 1.8299170e+03 1.8246891e+03 1.8194722e+03 1.8143695e+03 1.8092671e+03 1.8042801e+03 1.7992950e+03 1.7944117e+03 1.7895471e+03 1.7847526e+03 1.7800099e+03 1.7752859e+03 1.7706672e+03 1.7660485e+03 1.7614977e+03 1.7570020e+03 1.7525063e+03 1.7481055e+03 1.7437281e+03 1.7393506e+03 1.7350795e+03 1.7308103e+03 1.7265599e+03 1.7223842e+03 1.7182086e+03 1.7140751e+03 1.7099769e+03 1.7058814e+03 1.7018462e+03 1.6978109e+03 1.6938091e+03 1.6898229e+03 1.6858529e+03 1.6819023e+03 1.6779604e+03 1.6740337e+03 1.6701119e+03 1.6661981e+03 1.6622851e+03 1.6583730e+03 1.6544550e+03 1.6505338e+03 1.6465937e+03 1.6426453e+03 1.6386692e+03 1.6346694e+03 1.6306465e+03 1.6265700e+03 1.6224645e+03 1.6183002e+03 1.6140696e+03 1.6097955e+03 1.6054102e+03 1.6009473e+03 1.5964124e+03 1.5917047e+03 1.5869005e+03 1.5819738e+03 1.5768205e+03 1.5715201e+03 1.5660567e+03 1.5602751e+03 1.5542660e+03 1.5480061e+03 1.5414621e+03 1.5344910e+03 1.5271592e+03 1.5194344e+03 1.5112747e+03 1.5026415e+03 1.4935001e+03 1.4838128e+03 1.4735539e+03 1.4627023e+03 1.4512366e+03 1.4391470e+03 1.4264287e+03 1.4130809e+03 1.3991089e+03 1.3845267e+03 1.3693512e+03 1.3536052e+03 1.3372770e+03 1.3204422e+03 1.3031338e+03 1.2853857e+03 1.2672330e+03 1.2487084e+03 1.2298447e+03 1.2106729e+03 1.1912215e+03 1.1715166e+03 1.1515838e+03 1.1314455e+03 1.1111213e+03 1.0906292e+03 1.0699861e+03 1.0492042e+03 1.0282963e+03 1.0072697e+03 9.8612629e+02 9.6486595e+02 9.4348797e+02 9.2199132e+02 9.0037473e+02 8.7863713e+02 8.5674717e+02 8.3471004e+02 8.1253457e+02 7.9022985e+02 7.6770907e+02 7.4501469e+02 7.2220155e+02 6.9905153e+02 6.7585325e+02 6.5220515e+02 6.2855706e+02 6.0436230e+02 5.8008231e+02 5.5552888e+02 5.3037792e+02 5.0522697e+02 4.7975473e+02 4.5341335e+02 4.2707196e+02 4.0073058e+02 3.7332315e+02 3.4554876e+02 3.1777438e+02 2.9000000e+02)
    300 (2.9000000e+02 3.1568133e+02 3.4136266e+02 3.6704399e+02 3.9272531e+02 4.1828444e+02 4.4326028e+02 4.6823612e+02 4.9321195e+02 5.1818779e+02 5.4287803e+02 5.6704053e+02 5.9120303e+02 6.1536553e+02 6.3952804e+02 6.6322174e+02 6.8651877e+02 7.0981580e+02 7.3311284e+02 7.5640987e+02 7.7906251e+02 8.0150782e+02 8.2395313e+02 8.4639845e+02 8.6883710e+02 8.9050221e+02 9.1216733e+02 9.3383244e+02 9.5549756e+02 9.7696623e+02 9.9795710e+02 1.0189480e+03 1.0399388e+03 1.0609297e+03 1.0815713e+03 1.1019676e+03 1.1223640e+03 1.1427603e+03 1.1631567e+03 1.1830642e+03 1.2029036e+03 1.2227429e+03 1.2425823e+03 1.2623464e+03 1.2816508e+03 1.3009553e+03 1.3202598e+03 1.3395643e+03 1.3586816e+03 1.3774648e+03 1.3962480e+03 1.4150313e+03 1.4338145e+03 1.4523041e+03 1.4705786e+03 1.4888531e+03 1.5071277e+03 1.5254022e+03 1.5432051e+03 1.5609855e+03 1.5787659e+03 1.5965464e+03 1.6140068e+03 1.6313114e+03 1.6486160e+03 1.6659207e+03 1.6828273e+03 1.6996735e+03 1.7165196e+03 1.7331255e+03 1.7495186e+03 1.7659118e+03 1.7820654e+03 1.7979958e+03 1.8139262e+03 1.8294927e+03 1.8449365e+03 1.8603060e+03 1.8752247e+03 1.8901434e+03 1.9046998e+03 1.9190413e+03 1.9332603e+03 1.9469630e+03 1.9606657e+03 1.9737976e+03 1.9867863e+03 1.9994333e+03 2.0116231e+03 2.0237495e+03 2.0350470e+03 2.0463446e+03 2.0569272e+03 2.0672343e+03 2.0771316e+03 2.0863442e+03 2.0955357e+03 2.1035468e+03 2.1115580e+03 2.1187377e+03 2.1254308e+03 2.1318629e+03 2.1371147e+03 2.1423665e+03 2.1466304e+03 2.1503202e+03 2.1540100e+03 2.1561154e+03 2.1581560e+03 2.1599130e+03 2.1603029e+03 2.1606928e+03 2.1605601e+03 2.1594488e+03 2.1583376e+03 2.1564098e+03 2.1540883e+03 2.1514670e+03 2.1482754e+03 2.1448152e+03 2.1410316e+03 2.1368849e+03 2.1324655e+03 2.1278070e+03 2.1229190e+03 2.1178075e+03 2.1124657e+03 2.1068927e+03 2.1010847e+03 2.0950293e+03 2.0887508e+03 2.0822639e+03 2.0755988e+03 2.0687870e+03 2.0618623e+03 2.0548586e+03 2.0477999e+03 2.0407140e+03 2.0336194e+03 2.0265353e+03 2.0194717e+03 2.0124409e+03 2.0054523e+03 1.9985070e+03 1.9916188e+03 1.9847858e+03 1.9780089e+03 1.9712954e+03 1.9646471e+03 1.9580599e+03 1.9515350e+03 1.9450820e+03 1.9386945e+03 1.9323705e+03 1.9261106e+03 1.9199190e+03 1.9137970e+03 1.9077393e+03 1.9017455e+03 1.8958165e+03 1.8899510e+03 1.8841494e+03 1.8784120e+03 1.8727370e+03 1.8671242e+03 1.8615735e+03 1.8560835e+03 1.8506531e+03 1.8452803e+03 1.8399634e+03 1.8347001e+03 1.8294918e+03 1.8243483e+03 1.8192533e+03 1.8142029e+03 1.8092070e+03 1.8042684e+03 1.7993660e+03 1.7945134e+03 1.7897144e+03 1.7849418e+03 1.7802313e+03 1.7755503e+03 1.7709083e+03 1.7663114e+03 1.7617354e+03 1.7572134e+03 1.7527006e+03 1.7482438e+03 1.7437948e+03 1.7393888e+03 1.7349954e+03 1.7306326e+03 1.7262859e+03 1.7219579e+03 1.7176485e+03 1.7133478e+03 1.7090647e+03 1.7047854e+03 1.7005133e+03 1.6962424e+03 1.6919713e+03 1.6876959e+03 1.6834113e+03 1.6791176e+03 1.6748042e+03 1.6704684e+03 1.6661108e+03 1.6617259e+03 1.6572920e+03 1.6528179e+03 1.6482972e+03 1.6437233e+03 1.6390727e+03 1.6343428e+03 1.6295309e+03 1.6246262e+03 1.6196170e+03 1.6144915e+03 1.6092182e+03 1.6037891e+03 1.5981959e+03 1.5924203e+03 1.5864427e+03 1.5802421e+03 1.5737970e+03 1.5670848e+03 1.5600833e+03 1.5527684e+03 1.5451171e+03 1.5371069e+03 1.5287162e+03 1.5198968e+03 1.5106357e+03 1.5009307e+03 1.4907705e+03 1.4801445e+03 1.4690417e+03 1.4573928e+03 1.4452667e+03 1.4326692e+03 1.4196075e+03 1.4060195e+03 1.3919961e+03 1.3775559e+03 1.3626982e+03 1.3474229e+03 1.3318000e+03 1.3158494e+03 1.2995666e+03 1.2829885e+03 1.2661544e+03 1.2490841e+03 1.2317958e+03 1.2143041e+03 1.1966216e+03 1.1787783e+03 1.1607894e+03 1.1426656e+03 1.1244081e+03 1.1060392e+03 1.0875723e+03 1.0690190e+03 1.0503810e+03 1.0316347e+03 1.0128233e+03 9.9394766e+02 9.7495236e+02 9.5590969e+02 9.3675234e+02 9.1752228e+02 8.9819277e+02 8.7877279e+02 8.5923923e+02 8.3963659e+02 8.1985331e+02 8.0007003e+02 7.8000399e+02 7.5990558e+02 7.3969969e+02 7.1918950e+02 6.9867930e+02 6.7800671e+02 6.5693636e+02 6.3586601e+02 6.1479566e+02 5.9303085e+02 5.7116203e+02 5.4929321e+02 5.2742439e+02 5.0462661e+02 4.8160722e+02 4.5858782e+02 4.3556843e+02 4.1244230e+02 3.8795384e+02 3.6346538e+02 3.3897692e+02 3.1448846e+02 2.9000000e+02)
    300 (2.9000000e+02 3.1563153e+02 3.4126306e+02 3.6689459e+02 3.9252612e+02 4.1815765e+02 4.4343857e+02 4.6824748e+02 4.9305640e+02 5.1786531e+02 5.4267423e+02 5.6743775e+02 5.9134108e+02 6.1524441e+02 6.3914774e+02 6.6305106e+02 6.8695439e+02 7.0999008e+02 7.3298992e+02 7.5598976e+02 7.7898960e+02 8.0192156e+02 8.2407360e+02 8.4622565e+02 8.6837770e+02 8.9052975e+02 9.1246595e+02 9.3386309e+02 9.5526023e+02 9.7665737e+02 9.9805451e+02 1.0191200e+03 1.0398557e+03 1.0605913e+03 1.0813269e+03 1.1020625e+03 1.1224102e+03 1.1425216e+03 1.1626331e+03 1.1827446e+03 1.2028561e+03 1.2226975e+03 1.2421662e+03 1.2616349e+03 1.2811037e+03 1.3005724e+03 1.3200411e+03 1.3390447e+03 1.3578453e+03 1.3766458e+03 1.3954464e+03 1.4142469e+03 1.4330475e+03 1.4513634e+03 1.4694959e+03 1.4876283e+03 1.5057608e+03 1.5238932e+03 1.5419417e+03 1.5594237e+03 1.5769056e+03 1.5943876e+03 1.6118695e+03 1.6292652e+03 1.6460933e+03 1.6629215e+03 1.6797496e+03 1.6965778e+03 1.7130218e+03 1.7291518e+03 1.7452817e+03 1.7614117e+03 1.7773592e+03 1.7927152e+03 1.8080712e+03 1.8234272e+03 1.8386462e+03 1.8531368e+03 1.8676274e+03 1.8821180e+03 1.8962936e+03 1.9098257e+03 1.9233578e+03 1.9368899e+03 1.9496378e+03 1.9621243e+03 1.9746108e+03 1.9866435e+03 1.9980073e+03 2.0093711e+03 2.0204205e+03 2.0305974e+03 2.0407744e+03 2.0505784e+03 2.0595175e+03 2.0684566e+03 2.0767732e+03 2.0844417e+03 2.0921101e+03 2.0987321e+03 2.1051125e+03 2.1111880e+03 2.1162765e+03 2.1213650e+03 2.1255200e+03 2.1293513e+03 2.1327316e+03 2.1354038e+03 2.1378041e+03 2.1394655e+03 2.1407785e+03 2.1415898e+03 2.1418363e+03 2.1416995e+03 2.1411304e+03 2.1401284e+03 2.1387125e+03 2.1369139e+03 2.1347628e+03 2.1322890e+03 2.1295192e+03 2.1264763e+03 2.1231776e+03 2.1196348e+03 2.1158538e+03 2.1117853e+03 2.1074437e+03 2.1028024e+03 2.0978377e+03 2.0925572e+03 2.0869768e+03 2.0811205e+03 2.0750288e+03 2.0687421e+03 2.0622917e+03 2.0557295e+03 2.0490825e+03 2.0423786e+03 2.0356455e+03 2.0288991e+03 2.0221563e+03 2.0154321e+03 2.0087321e+03 2.0020645e+03 1.9954421e+03 1.9888630e+03 1.9823316e+03 1.9758499e+03 1.9694216e+03 1.9630515e+03 1.9567380e+03 1.9504816e+03 1.9442821e+03 1.9381402e+03 1.9320554e+03 1.9260274e+03 1.9200561e+03 1.9141402e+03 1.9082786e+03 1.9024708e+03 1.8967194e+03 1.8910253e+03 1.8853811e+03 1.8797842e+03 1.8742316e+03 1.8687322e+03 1.8632853e+03 1.8578754e+03 1.8525046e+03 1.8471902e+03 1.8419038e+03 1.8366586e+03 1.8314561e+03 1.8262726e+03 1.8211420e+03 1.8160284e+03 1.8109488e+03 1.8058962e+03 1.8008602e+03 1.7958582e+03 1.7908671e+03 1.7858963e+03 1.7809404e+03 1.7759930e+03 1.7710576e+03 1.7661270e+03 1.7611988e+03 1.7562704e+03 1.7513361e+03 1.7463942e+03 1.7414426e+03 1.7364705e+03 1.7314776e+03 1.7264612e+03 1.7214169e+03 1.7163319e+03 1.7112004e+03 1.7060225e+03 1.7007918e+03 1.6955011e+03 1.6901433e+03 1.6846928e+03 1.6791553e+03 1.6735216e+03 1.6677818e+03 1.6619244e+03 1.6559377e+03 1.6498094e+03 1.6435263e+03 1.6370744e+03 1.6304388e+03 1.6236065e+03 1.6165643e+03 1.6092991e+03 1.6018006e+03 1.5940498e+03 1.5860062e+03 1.5776909e+03 1.5690944e+03 1.5601951e+03 1.5509543e+03 1.5414086e+03 1.5315487e+03 1.5213194e+03 1.5107764e+03 1.4999053e+03 1.4886773e+03 1.4771446e+03 1.4652858e+03 1.4531054e+03 1.4406435e+03 1.4278887e+03 1.4148484e+03 1.4015619e+03 1.3880424e+03 1.3742826e+03 1.3603079e+03 1.3461428e+03 1.3318005e+03 1.3172952e+03 1.3026384e+03 1.2878431e+03 1.2729225e+03 1.2578865e+03 1.2427468e+03 1.2275125e+03 1.2121917e+03 1.1967922e+03 1.1813211e+03 1.1657849e+03 1.1501882e+03 1.1345350e+03 1.1188301e+03 1.1030770e+03 1.0872785e+03 1.0714371e+03 1.0555482e+03 1.0396138e+03 1.0236411e+03 1.0076323e+03 9.9157201e+02 9.7546004e+02 9.5931090e+02 9.4309993e+02 9.2683114e+02 9.1053113e+02 8.9413076e+02 8.7769933e+02 8.6118471e+02 8.4460934e+02 8.2796544e+02 8.1123283e+02 7.9444017e+02 7.7753708e+02 7.6057240e+02 7.4348772e+02 7.2632291e+02 7.0904924e+02 6.9164927e+02 6.7418908e+02 6.5650977e+02 6.3883046e+02 6.2087210e+02 6.0285634e+02 5.8472730e+02 5.6630410e+02 5.4788091e+02 5.2918974e+02 5.1026881e+02 4.9134787e+02 4.7209081e+02 4.5257115e+02 4.3305148e+02 4.1327614e+02 3.9308472e+02 3.7289329e+02 3.5258967e+02 3.3172645e+02 3.1086322e+02 2.9000000e+02)
    300 (2.9000000e+02 3.1571225e+02 3.4142451e+02 3.6713676e+02 3.9284902e+02 4.1818931e+02 4.4327037e+02 4.6835144e+02 4.9343250e+02 5.1834728e+02 5.4271482e+02 5.6708235e+02 5.9144988e+02 6.1581741e+02 6.3944949e+02 6.6306652e+02 6.8668355e+02 7.1030057e+02 7.3328973e+02 7.5616135e+02 7.7903297e+02 8.0190459e+02 8.2422225e+02 8.4638391e+02 8.6854557e+02 8.9070722e+02 9.1238882e+02 9.3390141e+02 9.5541400e+02 9.7692659e+02 9.9803933e+02 1.0189793e+03 1.0399194e+03 1.0608594e+03 1.0814629e+03 1.1018804e+03 1.1222978e+03 1.1427152e+03 1.1628604e+03 1.1827696e+03 1.2026789e+03 1.2225882e+03 1.2423400e+03 1.2617380e+03 1.2811360e+03 1.3005339e+03 1.3199319e+03 1.3388651e+03 1.3577356e+03 1.3766060e+03 1.3954765e+03 1.4142095e+03 1.4325300e+03 1.4508505e+03 1.4691710e+03 1.4874915e+03 1.5054973e+03 1.5232461e+03 1.5409948e+03 1.5587436e+03 1.5764924e+03 1.5936645e+03 1.6108176e+03 1.6279708e+03 1.6451240e+03 1.6618773e+03 1.6784078e+03 1.6949383e+03 1.7114688e+03 1.7275856e+03 1.7434594e+03 1.7593331e+03 1.7752068e+03 1.7904351e+03 1.8056127e+03 1.8207902e+03 1.8355899e+03 1.8500287e+03 1.8644676e+03 1.8786417e+03 1.8922917e+03 1.9059416e+03 1.9193098e+03 1.9321119e+03 1.9449140e+03 1.9573044e+03 1.9691921e+03 1.9810799e+03 1.9923235e+03 2.0032252e+03 2.0141269e+03 2.0240617e+03 2.0339017e+03 2.0435165e+03 2.0522196e+03 2.0609227e+03 2.0690232e+03 2.0765180e+03 2.0840128e+03 2.0904896e+03 2.0967178e+03 2.1028028e+03 2.1077236e+03 2.1126443e+03 2.1170161e+03 2.1206108e+03 2.1242054e+03 2.1268674e+03 2.1291405e+03 2.1314137e+03 2.1324633e+03 2.1334646e+03 2.1341954e+03 2.1340772e+03 2.1339591e+03 2.1331669e+03 2.1321842e+03 2.1307159e+03 2.1290091e+03 2.1269800e+03 2.1246145e+03 2.1219979e+03 2.1191378e+03 2.1160137e+03 2.1126368e+03 2.1089825e+03 2.1050301e+03 2.1007561e+03 2.0961308e+03 2.0911695e+03 2.0858837e+03 2.0803020e+03 2.0744500e+03 2.0683826e+03 2.0621428e+03 2.0557692e+03 2.0492929e+03 2.0427499e+03 2.0361637e+03 2.0295560e+03 2.0229413e+03 2.0163356e+03 2.0097459e+03 2.0031873e+03 1.9966590e+03 1.9901692e+03 1.9837244e+03 1.9773250e+03 1.9709722e+03 1.9646686e+03 1.9584151e+03 1.9522126e+03 1.9460636e+03 1.9399660e+03 1.9339213e+03 1.9279284e+03 1.9219867e+03 1.9160950e+03 1.9102525e+03 1.9044575e+03 1.8987078e+03 1.8930016e+03 1.8873453e+03 1.8817349e+03 1.8761624e+03 1.8706253e+03 1.8651316e+03 1.8596792e+03 1.8542546e+03 1.8488610e+03 1.8435084e+03 1.8381768e+03 1.8328720e+03 1.8275974e+03 1.8223378e+03 1.8171029e+03 1.8118849e+03 1.8066773e+03 1.8014866e+03 1.7963021e+03 1.7911228e+03 1.7859475e+03 1.7807706e+03 1.7755908e+03 1.7704014e+03 1.7651985e+03 1.7599812e+03 1.7547464e+03 1.7494804e+03 1.7441825e+03 1.7388508e+03 1.7334802e+03 1.7280648e+03 1.7225871e+03 1.7170464e+03 1.7114384e+03 1.7057548e+03 1.6999871e+03 1.6941261e+03 1.6881623e+03 1.6820855e+03 1.6758850e+03 1.6695494e+03 1.6630678e+03 1.6564277e+03 1.6496164e+03 1.6426223e+03 1.6354341e+03 1.6280409e+03 1.6204333e+03 1.6126016e+03 1.6045136e+03 1.5961655e+03 1.5875646e+03 1.5787026e+03 1.5695436e+03 1.5600956e+03 1.5503736e+03 1.5403464e+03 1.5300196e+03 1.5194199e+03 1.5085027e+03 1.4973106e+03 1.4858507e+03 1.4740923e+03 1.4620899e+03 1.4498375e+03 1.4373280e+03 1.4246046e+03 1.4116760e+03 1.3985240e+03 1.3851912e+03 1.3716897e+03 1.3580296e+03 1.3442226e+03 1.3302777e+03 1.3162079e+03 1.3020230e+03 1.2877341e+03 1.2733514e+03 1.2588848e+03 1.2443435e+03 1.2297354e+03 1.2150643e+03 1.2003207e+03 1.1855295e+03 1.1706942e+03 1.1558173e+03 1.1408835e+03 1.1259150e+03 1.1109137e+03 1.0958760e+03 1.0807959e+03 1.0656872e+03 1.0505515e+03 1.0353681e+03 1.0201575e+03 1.0049227e+03 9.8963042e+02 9.7431117e+02 9.5894921e+02 9.4353269e+02 9.2809212e+02 9.1256948e+02 8.9703762e+02 8.8140137e+02 8.6576512e+02 8.5000748e+02 8.3424816e+02 8.1836623e+02 8.0246010e+02 7.8645860e+02 7.7037695e+02 7.5427601e+02 7.3798087e+02 7.2168572e+02 7.0527083e+02 6.8871250e+02 6.7215417e+02 6.5539549e+02 6.3850802e+02 6.2162056e+02 6.0452239e+02 5.8721363e+02 5.6990487e+02 5.5257180e+02 5.3470654e+02 5.1684128e+02 4.9897602e+02 4.8108220e+02 4.6246547e+02 4.4384875e+02 4.2523202e+02 4.0661530e+02 3.8772648e+02 3.6818119e+02 3.4863589e+02 3.2909059e+02 3.0954530e+02 2.9000000e+02)
    300 (2.9000000e+02 3.1566408e+02 3.4132815e+02 3.6699223e+02 3.9265630e+02 4.1832038e+02 4.4328454e+02 4.6822219e+02 4.9315985e+02 5.1809750e+02 5.4291960e+02 5.6706704e+02 5.9121449e+02 6.1536193e+02 6.3950937e+02 6.6313907e+02 6.8649809e+02 7.0985711e+02 7.3321613e+02 7.5625474e+02 7.7886039e+02 8.0146604e+02 8.2407169e+02 8.4645592e+02 8.6836079e+02 8.9026565e+02 9.1217052e+02 9.3392487e+02 9.5519835e+02 9.7647184e+02 9.9774533e+02 1.0189475e+03 1.0396485e+03 1.0603495e+03 1.0810505e+03 1.1017514e+03 1.1219649e+03 1.1421078e+03 1.1622506e+03 1.1823934e+03 1.2023308e+03 1.2218962e+03 1.2414616e+03 1.2610270e+03 1.2805924e+03 1.2998505e+03 1.3188118e+03 1.3377730e+03 1.3567343e+03 1.3756955e+03 1.3943661e+03 1.4127067e+03 1.4310473e+03 1.4493879e+03 1.4677285e+03 1.4857221e+03 1.5034405e+03 1.5211590e+03 1.5388774e+03 1.5565666e+03 1.5736675e+03 1.5907685e+03 1.6078695e+03 1.6249704e+03 1.6414635e+03 1.6579413e+03 1.6744192e+03 1.6907472e+03 1.7065751e+03 1.7224031e+03 1.7382310e+03 1.7535734e+03 1.7687093e+03 1.7838452e+03 1.7987358e+03 1.8131264e+03 1.8275169e+03 1.8418358e+03 1.8554248e+03 1.8690138e+03 1.8826027e+03 1.8953569e+03 1.9080885e+03 1.9208201e+03 1.9326659e+03 1.9444889e+03 1.9562319e+03 1.9671001e+03 1.9779683e+03 1.9885495e+03 1.9984214e+03 2.0082934e+03 2.0175728e+03 2.0264154e+03 2.0352579e+03 2.0431141e+03 2.0509001e+03 2.0583127e+03 2.0650236e+03 2.0717345e+03 2.0775759e+03 2.0832061e+03 2.0885035e+03 2.0930748e+03 2.0976461e+03 2.1013023e+03 2.1048799e+03 2.1078318e+03 2.1105210e+03 2.1126541e+03 2.1145666e+03 2.1158571e+03 2.1169404e+03 2.1175716e+03 2.1178322e+03 2.1178281e+03 2.1174495e+03 2.1167390e+03 2.1157860e+03 2.1145783e+03 2.1130729e+03 2.1113163e+03 2.1093263e+03 2.1070937e+03 2.1045985e+03 2.1017850e+03 2.0986511e+03 2.0951642e+03 2.0912899e+03 2.0870325e+03 2.0824039e+03 2.0774311e+03 2.0721504e+03 2.0666047e+03 2.0608379e+03 2.0548943e+03 2.0488136e+03 2.0426287e+03 2.0363683e+03 2.0300564e+03 2.0237149e+03 2.0173559e+03 2.0109933e+03 2.0046365e+03 1.9982935e+03 1.9919687e+03 1.9856700e+03 1.9793998e+03 1.9731595e+03 1.9669512e+03 1.9607787e+03 1.9546420e+03 1.9485402e+03 1.9424723e+03 1.9364371e+03 1.9304333e+03 1.9244702e+03 1.9185386e+03 1.9126337e+03 1.9067554e+03 1.9009147e+03 1.8950951e+03 1.8892959e+03 1.8835249e+03 1.8777732e+03 1.8720364e+03 1.8663150e+03 1.8606102e+03 1.8549141e+03 1.8492247e+03 1.8435397e+03 1.8378569e+03 1.8321712e+03 1.8264803e+03 1.8207812e+03 1.8150697e+03 1.8093389e+03 1.8035866e+03 1.7978084e+03 1.7920000e+03 1.7861568e+03 1.7802733e+03 1.7743434e+03 1.7683617e+03 1.7623211e+03 1.7562121e+03 1.7500305e+03 1.7437703e+03 1.7374225e+03 1.7309814e+03 1.7244377e+03 1.7177831e+03 1.7110070e+03 1.7040973e+03 1.6970498e+03 1.6898557e+03 1.6825085e+03 1.6750001e+03 1.6673237e+03 1.6594429e+03 1.6513808e+03 1.6431303e+03 1.6346628e+03 1.6259805e+03 1.6170944e+03 1.6079765e+03 1.5986308e+03 1.5890744e+03 1.5792666e+03 1.5692440e+03 1.5589955e+03 1.5485133e+03 1.5378293e+03 1.5269083e+03 1.5157910e+03 1.5044768e+03 1.4929552e+03 1.4812612e+03 1.4693931e+03 1.4573464e+03 1.4451514e+03 1.4328157e+03 1.4203456e+03 1.4077395e+03 1.3950181e+03 1.3821914e+03 1.3692682e+03 1.3562556e+03 1.3431629e+03 1.3299935e+03 1.3167508e+03 1.3034478e+03 1.2900914e+03 1.2766864e+03 1.2632373e+03 1.2497475e+03 1.2362111e+03 1.2226433e+03 1.2090464e+03 1.1954225e+03 1.1817677e+03 1.1680857e+03 1.1543826e+03 1.1406597e+03 1.1269106e+03 1.1131402e+03 1.0993525e+03 1.0855446e+03 1.0717111e+03 1.0578615e+03 1.0439919e+03 1.0300936e+03 1.0161798e+03 1.0022397e+03 9.8826954e+02 9.7428293e+02 9.6024660e+02 9.4618891e+02 9.3209453e+02 9.1795816e+02 9.0379912e+02 8.8957594e+02 8.7533962e+02 8.6102542e+02 8.4669603e+02 8.3228783e+02 8.1785875e+02 8.0334288e+02 7.8880974e+02 7.7416913e+02 7.5952853e+02 7.4474485e+02 7.2995821e+02 7.1505093e+02 7.0009138e+02 6.8507678e+02 6.6990948e+02 6.5474219e+02 6.3941137e+02 6.2398994e+02 6.0856851e+02 5.9289914e+02 5.7716158e+02 5.6142401e+02 5.4543741e+02 5.2930054e+02 5.1316367e+02 4.9698234e+02 4.8034482e+02 4.6370731e+02 4.4706979e+02 4.3032368e+02 4.1309571e+02 3.9586775e+02 3.7863978e+02 3.6135726e+02 3.4351794e+02 3.2567863e+02 3.0783931e+02 2.9000000e+02)
    300 (2.9000000e+02 3.1574007e+02 3.4148013e+02 3.6722020e+02 3.9270253e+02 4.1796687e+02 4.4323121e+02 4.6843357e+02 4.9316604e+02 5.1789851e+02 5.4263098e+02 5.6692928e+02 5.9109830e+02 6.1526732e+02 6.3912276e+02 6.6272152e+02 6.8632027e+02 7.0967081e+02 7.3270710e+02 7.5574340e+02 7.7856229e+02 8.0105344e+02 8.2354458e+02 8.4583211e+02 8.6780449e+02 8.8977687e+02 9.1155390e+02 9.3304191e+02 9.5452991e+02 9.7583359e+02 9.9687827e+02 1.0179229e+03 1.0387955e+03 1.0594245e+03 1.0800536e+03 1.1005336e+03 1.1207500e+03 1.1409665e+03 1.1610963e+03 1.1808885e+03 1.2006807e+03 1.2204729e+03 1.2398597e+03 1.2592062e+03 1.2785527e+03 1.2976904e+03 1.3165603e+03 1.3354303e+03 1.3543002e+03 1.3727677e+03 1.3911272e+03 1.4094868e+03 1.4278154e+03 1.4456329e+03 1.4634504e+03 1.4812679e+03 1.4988882e+03 1.5161339e+03 1.5333796e+03 1.5506253e+03 1.5674406e+03 1.5840850e+03 1.6007294e+03 1.6172446e+03 1.6332543e+03 1.6492640e+03 1.6652737e+03 1.6807464e+03 1.6960809e+03 1.7114154e+03 1.7264118e+03 1.7410267e+03 1.7556416e+03 1.7700854e+03 1.7839358e+03 1.7977861e+03 1.8115842e+03 1.8246286e+03 1.8376730e+03 1.8507175e+03 1.8629212e+03 1.8751241e+03 1.8873055e+03 1.8986358e+03 1.9099662e+03 1.9211773e+03 1.9316073e+03 1.9420373e+03 1.9521828e+03 1.9616885e+03 1.9711942e+03 1.9801949e+03 1.9887549e+03 1.9973149e+03 2.0051089e+03 2.0127049e+03 2.0202277e+03 2.0268471e+03 2.0334666e+03 2.0397289e+03 2.0453670e+03 2.0510050e+03 2.0560048e+03 2.0606645e+03 2.0653242e+03 2.0690960e+03 2.0727961e+03 2.0763126e+03 2.0791141e+03 2.0819157e+03 2.0842359e+03 2.0862618e+03 2.0880630e+03 2.0894713e+03 2.0906413e+03 2.0915658e+03 2.0921367e+03 2.0925175e+03 2.0926766e+03 2.0925762e+03 2.0922472e+03 2.0917027e+03 2.0909306e+03 2.0898950e+03 2.0885863e+03 2.0869773e+03 2.0850498e+03 2.0827119e+03 2.0799792e+03 2.0768311e+03 2.0732628e+03 2.0692817e+03 2.0649167e+03 2.0602055e+03 2.0551913e+03 2.0499172e+03 2.0444251e+03 2.0387542e+03 2.0329365e+03 2.0270014e+03 2.0209692e+03 2.0148656e+03 2.0087064e+03 2.0025021e+03 1.9962635e+03 1.9900006e+03 1.9837194e+03 1.9774247e+03 1.9711194e+03 1.9648069e+03 1.9584893e+03 1.9521666e+03 1.9458390e+03 1.9395068e+03 1.9331695e+03 1.9268260e+03 1.9204753e+03 1.9141156e+03 1.9077424e+03 1.9013545e+03 1.8949506e+03 1.8885271e+03 1.8820804e+03 1.8756073e+03 1.8691044e+03 1.8625681e+03 1.8559940e+03 1.8493775e+03 1.8427146e+03 1.8360004e+03 1.8292315e+03 1.8224019e+03 1.8155036e+03 1.8085301e+03 1.8014804e+03 1.7943493e+03 1.7871313e+03 1.7798223e+03 1.7724043e+03 1.7648800e+03 1.7572480e+03 1.7495033e+03 1.7416240e+03 1.7336194e+03 1.7254898e+03 1.7172093e+03 1.7087907e+03 1.7002336e+03 1.6915092e+03 1.6826443e+03 1.6736202e+03 1.6644358e+03 1.6551027e+03 1.6455965e+03 1.6359469e+03 1.6261273e+03 1.6161604e+03 1.6060383e+03 1.5957651e+03 1.5853538e+03 1.5747885e+03 1.5640974e+03 1.5532699e+03 1.5423159e+03 1.5312490e+03 1.5200633e+03 1.5087683e+03 1.4973777e+03 1.4858947e+03 1.4743240e+03 1.4626666e+03 1.4509349e+03 1.4391349e+03 1.4272725e+03 1.4153519e+03 1.4033798e+03 1.3913605e+03 1.3792949e+03 1.3671870e+03 1.3550454e+03 1.3428741e+03 1.3306759e+03 1.3184505e+03 1.3061978e+03 1.2939273e+03 1.2816406e+03 1.2693357e+03 1.2570136e+03 1.2446800e+03 1.2323356e+03 1.2199759e+03 1.2076078e+03 1.1952320e+03 1.1828429e+03 1.1704458e+03 1.1580425e+03 1.1456273e+03 1.1332050e+03 1.1207754e+03 1.1083335e+03 1.0958862e+03 1.0834259e+03 1.0709565e+03 1.0584786e+03 1.0459846e+03 1.0334851e+03 1.0209632e+03 1.0084388e+03 9.9588427e+02 9.8332796e+02 9.7073317e+02 9.5813831e+02 9.4549568e+02 9.3285305e+02 9.2016091e+02 9.0746284e+02 8.9471877e+02 8.8195607e+02 8.6915976e+02 8.5632227e+02 8.4347634e+02 8.3055135e+02 8.1762636e+02 8.0463539e+02 7.9160768e+02 7.7857053e+02 7.6542205e+02 7.5227356e+02 7.3906889e+02 7.2577629e+02 7.1248370e+02 6.9909619e+02 6.8563040e+02 6.7216461e+02 6.5858927e+02 6.4491261e+02 6.3123594e+02 6.1748921e+02 6.0355187e+02 5.8961453e+02 5.7567720e+02 5.6150196e+02 5.4723587e+02 5.3296978e+02 5.1870369e+02 5.0411462e+02 4.8942629e+02 4.7473796e+02 4.6004963e+02 4.4522542e+02 4.3000912e+02 4.1479283e+02 3.9957653e+02 3.8436024e+02 3.6900278e+02 3.5320222e+02 3.3740167e+02 3.2160111e+02 3.0580056e+02 2.9000000e+02)
    300 (2.9000000e+02 3.1556938e+02 3.4113875e+02 3.6670813e+02 3.9227750e+02 4.1784688e+02 4.4299274e+02 4.6778616e+02 4.9257958e+02 5.1737301e+02 5.4216643e+02 5.6648513e+02 5.9048205e+02 6.1447897e+02 6.3847589e+02 6.6228948e+02 6.8552974e+02 7.0877001e+02 7.3201027e+02 7.5507757e+02 7.7760639e+02 8.0013521e+02 8.2266403e+02 8.4493786e+02 8.6680149e+02 8.8866512e+02 9.1052875e+02 9.3204648e+02 9.5330005e+02 9.7455363e+02 9.9580721e+02 1.0166483e+03 1.0373431e+03 1.0580378e+03 1.0787325e+03 1.0989662e+03 1.1191204e+03 1.1392746e+03 1.1594288e+03 1.1790935e+03 1.1986978e+03 1.2183022e+03 1.2379066e+03 1.2570228e+03 1.2760540e+03 1.2950852e+03 1.3141163e+03 1.3327120e+03 1.3511274e+03 1.3695427e+03 1.3879581e+03 1.4061046e+03 1.4238449e+03 1.4415851e+03 1.4593254e+03 1.4770657e+03 1.4940963e+03 1.5111044e+03 1.5281125e+03 1.5451207e+03 1.5616422e+03 1.5778857e+03 1.5941291e+03 1.6103726e+03 1.6261534e+03 1.6416198e+03 1.6570862e+03 1.6725526e+03 1.6873455e+03 1.7020226e+03 1.7166997e+03 1.7311082e+03 1.7449798e+03 1.7588513e+03 1.7727229e+03 1.7857780e+03 1.7988296e+03 1.8118812e+03 1.8242475e+03 1.8364705e+03 1.8486934e+03 1.8602394e+03 1.8716278e+03 1.8830161e+03 1.8936307e+03 1.9041796e+03 1.9146184e+03 1.9243224e+03 1.9340264e+03 1.9433812e+03 1.9522356e+03 1.9610901e+03 1.9693117e+03 1.9773110e+03 1.9852285e+03 1.9923675e+03 1.9995064e+03 2.0062494e+03 2.0125314e+03 2.0188134e+03 2.0243835e+03 2.0298303e+03 2.0350263e+03 2.0396939e+03 2.0443615e+03 2.0483556e+03 2.0523323e+03 2.0557815e+03 2.0591556e+03 2.0620150e+03 2.0647388e+03 2.0671408e+03 2.0692528e+03 2.0711666e+03 2.0727937e+03 2.0741569e+03 2.0753288e+03 2.0763042e+03 2.0769890e+03 2.0774949e+03 2.0778140e+03 2.0779370e+03 2.0777773e+03 2.0773884e+03 2.0767399e+03 2.0757903e+03 2.0744998e+03 2.0728373e+03 2.0707160e+03 2.0681879e+03 2.0652048e+03 2.0617703e+03 2.0579157e+03 2.0536666e+03 2.0490584e+03 2.0441288e+03 2.0389211e+03 2.0334715e+03 2.0278185e+03 2.0219915e+03 2.0160200e+03 2.0099301e+03 2.0037284e+03 1.9974462e+03 1.9910862e+03 1.9846675e+03 1.9781911e+03 1.9716631e+03 1.9650929e+03 1.9584822e+03 1.9518337e+03 1.9451477e+03 1.9384252e+03 1.9316665e+03 1.9248705e+03 1.9180360e+03 1.9111620e+03 1.9042457e+03 1.8972850e+03 1.8902785e+03 1.8832212e+03 1.8761061e+03 1.8689353e+03 1.8617065e+03 1.8544148e+03 1.8470504e+03 1.8396139e+03 1.8321042e+03 1.8245123e+03 1.8168322e+03 1.8090686e+03 1.8012077e+03 1.7932491e+03 1.7851944e+03 1.7770259e+03 1.7687590e+03 1.7603678e+03 1.7518740e+03 1.7432483e+03 1.7345155e+03 1.7256462e+03 1.7166665e+03 1.7075474e+03 1.6983127e+03 1.6889434e+03 1.6794533e+03 1.6698339e+03 1.6600913e+03 1.6502269e+03 1.6402386e+03 1.6301364e+03 1.6199140e+03 1.6095861e+03 1.5991440e+03 1.5886022e+03 1.5779596e+03 1.5672213e+03 1.5563997e+03 1.5454822e+03 1.5344884e+03 1.5234231e+03 1.5122849e+03 1.5010777e+03 1.4898118e+03 1.4784909e+03 1.4671179e+03 1.4556977e+03 1.4442346e+03 1.4327314e+03 1.4211928e+03 1.4096228e+03 1.3980243e+03 1.3864003e+03 1.3747519e+03 1.3630815e+03 1.3513935e+03 1.3396901e+03 1.3279732e+03 1.3162427e+03 1.3045003e+03 1.2927492e+03 1.2809903e+03 1.2692226e+03 1.2574482e+03 1.2456686e+03 1.2338839e+03 1.2220928e+03 1.2102982e+03 1.1985001e+03 1.1866960e+03 1.1748888e+03 1.1630780e+03 1.1512615e+03 1.1394419e+03 1.1276170e+03 1.1157866e+03 1.1039534e+03 1.0921099e+03 1.0802633e+03 1.0684083e+03 1.0565462e+03 1.0446765e+03 1.0327958e+03 1.0209088e+03 1.0090058e+03 9.9709683e+02 9.8516567e+02 9.7322693e+02 9.6126231e+02 9.4928581e+02 9.3728463e+02 9.2526338e+02 9.1322429e+02 9.0115104e+02 8.8907432e+02 8.7694079e+02 8.6480726e+02 8.5262479e+02 8.4042060e+02 8.2819660e+02 8.1591046e+02 8.0362432e+02 7.9127116e+02 7.7888866e+02 7.6650175e+02 7.5400593e+02 7.4151012e+02 7.2898023e+02 7.1634943e+02 7.0371863e+02 6.9103745e+02 6.7824501e+02 6.6545256e+02 6.5262372e+02 6.3963473e+02 6.2664575e+02 6.1365677e+02 6.0046762e+02 5.8723664e+02 5.7400566e+02 5.6072559e+02 5.4718991e+02 5.3365423e+02 5.2011855e+02 5.0656080e+02 4.9263492e+02 4.7870904e+02 4.6478316e+02 4.5085728e+02 4.3675693e+02 4.2234986e+02 4.0794278e+02 3.9353571e+02 3.7912863e+02 3.6460985e+02 3.4968788e+02 3.3476591e+02 3.1984394e+02 3.0492197e+02 2.9000000e+02)