FoamFile
{
    version     2.0;
    format      ascii;
    class       scalarAverageField;
    object      epsilon;
    note        "Calculated assuming turbulence in equilibrium: epsilon=sqrt(Cmu)*k*|dU/dr|";
}

// * * * * * * * * * * * * * * * * * * * * * * * * * * * * * * * * * * * * * //

// Average
0


(
    // min z
    8.0144544e+02
    1.0477032e+03
    1.3042173e+03
    1.5710107e+03
    1.8481067e+03
    2.1355284e+03
    2.4332994e+03
    2.7475894e+03
    3.1916044e+03
    3.6755505e+03
    4.2015220e+03
    4.7716634e+03
    5.3881702e+03
    6.0532884e+03
    6.7798006e+03
    7.6544010e+03
    8.6055765e+03
    9.6375638e+03
    1.0754710e+04
    1.1961474e+04
    1.3262423e+04
    1.4633495e+04
    1.5948709e+04
    1.7344021e+04
    1.8822509e+04
    2.0387316e+04
    2.1807926e+04
    2.2826301e+04
    2.3439612e+04
    2.3696367e+04
    2.3419566e+04
    2.2555475e+04
    2.1048528e+04
    2.0645459e+04
    2.3328524e+04
    2.9295609e+04
    3.8542135e+04
    5.1479493e+04
    6.8300383e+04
    8.1734896e+04
    8.3971053e+04
    7.4380853e+04
    5.2782893e+04
    1.7747059e+04
    3.3850461e+04
    3.8947384e+04
    7.6814303e+04
    3.2923398e+05
    8.3925603e+05
    8.9091728e+05
    1.2861664e-01

    // max z
    8.0144544e+02
    1.0477032e+03
    1.3042173e+03
    1.5710107e+03
    1.8481067e+03
    2.1355284e+03
    2.4332994e+03
    2.7475894e+03
    3.1916044e+03
    3.6755505e+03
    4.2015220e+03
    4.7716634e+03
    5.3881702e+03
    6.0532884e+03
    6.7798006e+03
    7.6544010e+03
    8.6055765e+03
    9.6375638e+03
    1.0754710e+04
    1.1961474e+04
    1.3262423e+04
    1.4633495e+04
    1.5948709e+04
    1.7344021e+04
    1.8822509e+04
    2.0387316e+04
    2.1807926e+04
    2.2826301e+04
    2.3439612e+04
    2.3696367e+04
    2.3419566e+04
    2.2555475e+04
    2.1048528e+04
    2.0645459e+04
    2.3328524e+04
    2.9295609e+04
    3.8542135e+04
    5.1479493e+04
    6.8300383e+04
    8.1734896e+04
    8.3971053e+04
    7.4380853e+04
    5.2782893e+04
    1.7747059e+04
    3.3850461e+04
    3.8947384e+04
    7.6814303e+04
    3.2923398e+05
    8.3925603e+05
    8.9091728e+05
    1.2861664e-01
)

// *********************** vim: set ft=cpp et sw=4 : *********************** //
