FoamFile
{
    version     2.0;
    format      ascii;
    class       scalarAverageField;
    object      k;
}

// * * * * * * * * * * * * * * * * * * * * * * * * * * * * * * * * * * * * * //

// Average
0

(
    // min z
    5.2715953e+00
    5.2753754e+00
    5.2791671e+00
    5.2829703e+00
    5.2867850e+00
    5.2906112e+00
    5.2944490e+00
    5.3101772e+00
    5.5302248e+00
    5.7547693e+00
    5.9838107e+00
    6.2173489e+00
    6.4553839e+00
    6.6979157e+00
    6.9557027e+00
    7.3070199e+00
    7.6681734e+00
    8.0391633e+00
    8.4199897e+00
    8.8106524e+00
    9.2111514e+00
    9.6026261e+00
    9.9068665e+00
    1.0216197e+01
    1.0530616e+01
    1.0850126e+01
    1.1174725e+01
    1.1504413e+01
    1.1857496e+01
    1.2281317e+01
    1.2712819e+01
    1.3152001e+01
    1.3598864e+01
    1.4053407e+01
    1.4515630e+01
    1.4931542e+01
    1.5212027e+01
    1.5495917e+01
    1.5783212e+01
    1.6073912e+01
    1.6368017e+01
    1.6665526e+01
    1.7115974e+01
    1.7885937e+01
    1.8684863e+01
    1.9512751e+01
    2.0369601e+01
    2.1255414e+01
    2.2170189e+01
    1.1790198e+01
    1.0000000e-06

    // max z
    5.2715953e+00
    5.2753754e+00
    5.2791671e+00
    5.2829703e+00
    5.2867850e+00
    5.2906112e+00
    5.2944490e+00
    5.3101772e+00
    5.5302248e+00
    5.7547693e+00
    5.9838107e+00
    6.2173489e+00
    6.4553839e+00
    6.6979157e+00
    6.9557027e+00
    7.3070199e+00
    7.6681734e+00
    8.0391633e+00
    8.4199897e+00
    8.8106524e+00
    9.2111514e+00
    9.6026261e+00
    9.9068665e+00
    1.0216197e+01
    1.0530616e+01
    1.0850126e+01
    1.1174725e+01
    1.1504413e+01
    1.1857496e+01
    1.2281317e+01
    1.2712819e+01
    1.3152001e+01
    1.3598864e+01
    1.4053407e+01
    1.4515630e+01
    1.4931542e+01
    1.5212027e+01
    1.5495917e+01
    1.5783212e+01
    1.6073912e+01
    1.6368017e+01
    1.6665526e+01
    1.7115974e+01
    1.7885937e+01
    1.8684863e+01
    1.9512751e+01
    2.0369601e+01
    2.1255414e+01
    2.2170189e+01
    1.1790198e+01
    1.0000000e-06
)

// *********************** vim: set ft=cpp et sw=4 : *********************** //
