FoamFile
{
    version     2.0;
    format      ascii;
    class       vectorAverageField;
    object      U;
}

// * * * * * * * * * * * * * * * * * * * * * * * * * * * * * * * * * * * * * //

// Average
(49.6 0 0)

(
    // min z
    (6.295434e+01 0 0)
    (6.289558e+01 0 0)
    (6.283681e+01 0 0)
    (6.277805e+01 0 0)
    (6.271928e+01 0 0)
    (6.266052e+01 0 0)
    (6.260175e+01 0 0)
    (6.253681e+01 0 0)
    (6.236689e+01 0 0)
    (6.219697e+01 0 0)
    (6.202705e+01 0 0)
    (6.185713e+01 0 0)
    (6.168721e+01 0 0)
    (6.151729e+01 0 0)
    (6.133179e+01 0 0)
    (6.102168e+01 0 0)
    (6.071156e+01 0 0)
    (6.040145e+01 0 0)
    (6.009133e+01 0 0)
    (5.978121e+01 0 0)
    (5.947110e+01 0 0)
    (5.915331e+01 0 0)
    (5.879717e+01 0 0)
    (5.844104e+01 0 0)
    (5.808490e+01 0 0)
    (5.772876e+01 0 0)
    (5.737262e+01 0 0)
    (5.701649e+01 0 0)
    (5.663091e+01 0 0)
    (5.614228e+01 0 0)
    (5.565364e+01 0 0)
    (5.516501e+01 0 0)
    (5.467638e+01 0 0)
    (5.418775e+01 0 0)
    (5.369912e+01 0 0)
    (5.316458e+01 0 0)
    (5.251067e+01 0 0)
    (5.185677e+01 0 0)
    (5.120286e+01 0 0)
    (5.054896e+01 0 0)
    (4.989505e+01 0 0)
    (4.924115e+01 0 0)
    (4.847829e+01 0 0)
    (4.749752e+01 0 0)
    (4.651675e+01 0 0)
    (4.553597e+01 0 0)
    (4.455520e+01 0 0)
    (4.357443e+01 0 0)
    (4.259366e+01 0 0)
    (3.023587e+01 0 0)
    (0.500000e+00 0 0)

    // max z
    (6.295434e+01 0 0)
    (6.289558e+01 0 0)
    (6.283681e+01 0 0)
    (6.277805e+01 0 0)
    (6.271928e+01 0 0)
    (6.266052e+01 0 0)
    (6.260175e+01 0 0)
    (6.253681e+01 0 0)
    (6.236689e+01 0 0)
    (6.219697e+01 0 0)
    (6.202705e+01 0 0)
    (6.185713e+01 0 0)
    (6.168721e+01 0 0)
    (6.151729e+01 0 0)
    (6.133179e+01 0 0)
    (6.102168e+01 0 0)
    (6.071156e+01 0 0)
    (6.040145e+01 0 0)
    (6.009133e+01 0 0)
    (5.978121e+01 0 0)
    (5.947110e+01 0 0)
    (5.915331e+01 0 0)
    (5.879717e+01 0 0)
    (5.844104e+01 0 0)
    (5.808490e+01 0 0)
    (5.772876e+01 0 0)
    (5.737262e+01 0 0)
    (5.701649e+01 0 0)
    (5.663091e+01 0 0)
    (5.614228e+01 0 0)
    (5.565364e+01 0 0)
    (5.516501e+01 0 0)
    (5.467638e+01 0 0)
    (5.418775e+01 0 0)
    (5.369912e+01 0 0)
    (5.316458e+01 0 0)
    (5.251067e+01 0 0)
    (5.185677e+01 0 0)
    (5.120286e+01 0 0)
    (5.054896e+01 0 0)
    (4.989505e+01 0 0)
    (4.924115e+01 0 0)
    (4.847829e+01 0 0)
    (4.749752e+01 0 0)
    (4.651675e+01 0 0)
    (4.553597e+01 0 0)
    (4.455520e+01 0 0)
    (4.357443e+01 0 0)
    (4.259366e+01 0 0)
    (3.023587e+01 0 0)
    (0.500000e+00 0 0)
)

// *********************** vim: set ft=cpp et sw=4 : *********************** //
