FoamFile
{
    version     2.0;
    format      ascii;
    class       dictionary;
    location    "system";
    object      decomposeParDict;
}

numberOfSubdomains 4;

method          metis;

metisCoeffs
{
    processorWeights 4{1};
}

distributed     no;

roots           ( );

// *********************** vim: set ft=cpp et sw=4 : *********************** //
