FoamFile
{
    version         2.0;
    format          ascii;
    class           dictionary;
    object          blockMeshDict;
}

#include "../../../flow/constant/polyMesh/blockMeshDict"

// *********************** vim: set ft=cpp et sw=4 : *********************** //
