FoamFile
{
    version     2.0;
    format      ascii;
    class       volScalarField;
    location    "0";
    object      p;
}
// * * * * * * * * * * * * * * * * * * * * * * * * * * * * * * * * * * * * * //

dimensions      [1 -1 -2 0 0 0 0];

internalField   uniform 1.01325e5;

boundaryField
{
    jet
    {
        type            zeroGradient;
    }
    bluffBody
    {
        type            zeroGradient;
    }
    coflow
    {
        type            zeroGradient;
    }
    outflow
    {
        type            fixedValue;
        value           uniform 101325;
    }
    axis
    {
        type            slip;
    }
    outerWall
    {
        type            zeroGradient;
    }
    back
    {
        type            wedge;
    }
    front
    {
        type            wedge;
    }
}

// *********************** vim: set ft=cpp et sw=4 : *********************** //
