FoamFile
{
    version         2.0;
    format          ascii;
    class           scalarAverageField;
    object          epsilon;
    note            "Computed assuming turbulence in equilibirum";
}

// * * * * * * * * * * * * * * * * * * * * * * * * * * * * * * * * * * * * * //

// average
0

// data
(
    29773.5
    28128.8
    26561.4
    7705.63
    7268.91
    6853.54
    6458.76
    898.566
    846.003
    796.153
    748.911
    104.489
    98.2078
    92.2692
    86.6591
    81.3639
    76.3702
    71.665
    67.2357
    18.1675
    17.04
    15.9817
    14.9893
    14.0597
    13.1899
    12.3769
    11.6179
    10.9103
    10.2513
    9.63854
    9.06952
    8.54197
    8.05367
    7.60252
    7.18653
    6.80379
    6.45251
    6.131
    5.83766
    5.58117
    5.58117
    5.58117
    5.58117
    5.58117
    5.58117
    5.58117
    5.58117
    5.58117
    5.58117
    5.58117
    5.58117
    5.58117
    5.58117
    5.58117
    5.58117
    5.58117
    5.58117
    5.58117
    5.58117
    5.58117
    5.58117
    5.58117
    5.58117
    5.58117
    5.58117
    5.58117
    5.58117
    5.58117
    5.58117
    5.58117
    5.58117
    5.58117
    5.58117
    5.58117
    5.58117
    5.58117
    5.58117
    5.58117
    5.58117
    5.58117
    5.58117
    5.58117
    5.58117
    5.58117
    5.58117
    5.58117
    5.58117
    5.58117
    5.58117
    5.58117
    5.58117
    5.58117
    5.58117
    5.58117
    5.58117
    5.58117
    5.58117
    5.58117
    5.58117
    5.58117
    5.58117
    5.58117
    5.58117
    5.58117
    5.58117
    5.58117
    5.58117
    5.58117
    5.58117
    5.58117
    5.58117
    5.58117
    5.58117
    5.58117
    5.58117
    5.58117
    5.58117
    5.58117
    5.58117
    5.58117
    5.58117
    5.58117
    5.58117
    5.58117
    5.58117
    5.58117
    5.58117
    5.58117
    5.58117
    5.58117
    5.58117
    5.58117
    5.58117
    5.58117
    5.58117
    5.58117
    5.58117
    5.58117
    5.58117
    5.58117
    5.58117
    5.58117
    5.58117
    5.58117
    5.58117
    5.58117
    5.58117
    5.58117
    5.58117
    5.58117
    5.58117
    5.58117
    5.58117
    5.58117
    5.58117
    5.58117
    5.58117
    5.58117
    5.58117
    5.58117
    5.58117
    5.58117
    5.58117
    5.58117
    5.58117
    5.58117
    5.58117
    5.58117
    5.58117
    5.58117
    5.58117
    5.58117
    5.58117
    5.58117
    5.58117
    5.58117
    5.58117
    5.58117
    5.58117
    5.58117
    5.58117
    5.58117
    5.58117
    5.58117
    5.58117
    5.58117
    5.58117
    5.58117
    5.58117
    5.58117
    5.58117
    5.58117
    5.58117
    5.58117
    5.58117
    5.58117
    5.58117
    5.58117
    5.58117
    5.58117
    5.58117
    5.58117
    5.58117
    5.58117
    5.58117
    5.58117
    5.58117
    5.58117
    5.58117
    5.58117
    5.58117
    5.58117
    5.58117
    5.58117
    5.58117
    5.58117
    5.58117
    5.58117
    5.58117
    5.58117
    5.58117
    5.58117
    5.58117
    5.58117
    5.58117
    5.58117
    5.58117
    5.58117
    5.58117
    5.58117
    5.58117
    5.58117
    5.58117
    5.58117
    5.58117
    5.58117
    5.58117
    5.58117
    5.58117
    5.58117
    5.58117
    5.58117
    5.58117
    5.58117
    5.58117
    5.58117
    5.58117
    5.58117
    5.58117
    5.58117
    5.58117
    5.58117
    5.58117
    5.58117
    5.58117
    5.58117
    5.58117
    5.58117
    5.58117
    5.58117
    5.58117
    5.58117
    5.58117
    5.58117
    5.58117
    5.58117
    5.58117
    5.58117
    5.58117
    5.58117
    5.58117
    5.58117
    5.58117
    5.58117
    5.58117
    5.58117
    5.58117
    5.58117
    5.58117
    5.58117
    5.58117
    5.58117
    5.58117
    5.58117
    5.58117
    5.58117
    5.58117
    5.58117
    5.58117
    5.58117
    5.58117
    5.58117
    5.58117
    5.58117
    5.58117
    5.58117
    5.58117
    5.58117
    5.58117
    5.58117
    5.58117
    5.58117
    5.58117
    5.58117
    5.58117
    5.58117
    5.58117
    5.58117
    5.58117
    5.58117
    5.58117
    5.58117
    5.58117
    5.58117
    5.58117
    5.58117
    5.58117
    5.58117
    5.58117
    5.58117
    5.58117
    5.58117
    5.58117
    5.58117
    5.58117
    5.58117
    5.58117
    5.58117
    5.58117
    5.58117
    5.58117
    5.58117
    5.58117
    5.58117
    5.58117
    5.58117
    5.58117
    5.58117
    5.58117
    5.58117
    5.58117
    5.58117
    5.58117
    5.58117
    5.58117
    5.58117
    5.58117
    5.58117
    5.58117
    5.58117
    5.58117
    5.58117
    5.58117
    5.58117
    5.58117
    5.58117
    5.58117
    5.58117
    5.58117
    5.58117
    5.58117
    5.58117
    5.58117
    5.58117
    5.58117
    5.58117
    5.58117
    5.58117
    5.58117
    5.58117
    5.58117
    5.58117
    5.58117
    5.58117
    5.58117
    5.58117
    5.58117
    5.58117
    5.58117
    5.58117
    5.58117
    5.58117
    5.58117
    5.58117
    5.58117
    5.58117
    5.58117
    5.58117
    5.58117
    5.58117
    5.58117
    5.58117
    5.58117
    5.58117
    5.58117
    5.58117
    5.58117
    5.58117
    5.58117
    5.58117
    5.58117
    5.58117
    5.58117
    5.58117
    5.58117
    5.58117
    5.58117
    5.58117
    5.58117
    5.58117
    5.58117
    5.58117
    5.58117
    5.58117
    5.58117
    5.58117
    5.58117
    5.58117
    5.58117
    5.58117
    5.58117
    5.58117
    5.58117
    5.58117
    5.58117
    5.58117
    5.58117
    5.58117
    5.58117
    5.58117
    5.58117
    5.58117
    5.58117
    5.58117
    5.58117
    5.58117
    5.58117
    5.58117
    5.58117
    5.58117
    5.58117
    5.58117
    5.58117
    5.58117
    5.58117
    5.58117
    5.58117
    5.58117
    5.58117
    5.58117
    5.58117
    5.58117
    5.58117
    5.58117
    5.58117
    5.58117
    5.58117
    5.58117
    5.58117
    5.58117
    5.58117
    5.58117
    5.58117
    5.58117
    5.58117
    5.58117
    5.58117
    5.58117
    5.58117
    5.58117
    5.58117
    5.58117
    5.58117
    5.58117
    5.58117
    5.58117
    5.58117
    5.58117
    5.58117
    5.58117
    5.58117
    5.58117
    5.58117
    5.58117
    5.58117
    5.58117
    5.58117
    5.58117
    5.58117
    5.58117
    5.58117
    5.58117
    5.58117
    5.58117
    5.58117
    5.58117
    5.58117
    5.58117
    5.58117
    5.58117
    5.58117
    5.58117
    5.58117
    5.58117
    5.58117
    5.58117
    5.58117
    5.58117
    5.58117
    5.58117
    5.58117
    5.58117
    5.58117
    5.58117
    5.58117
    5.58117
    5.58117
    5.58117
    5.58117
    5.58117
    5.58117
    5.58117
    5.58117
    5.58117
    5.58117
    5.58117
    5.58117
    5.58117
    5.58117
    5.58117
    5.58117
    5.58117
    5.58117
    5.58117
    5.58117
    5.58117
    5.58117
    5.58117
    5.58117
    5.58117
    5.58117
    5.58117
    5.58117
    5.58117
    5.58117
    5.58117
    5.58117
    5.58117
    5.58117
    5.58117
    5.58117
    5.58117
    5.58117
    5.58117
    5.58117
    5.58117
    5.58117
    5.58117
    5.58117
    5.58117
    5.58117
    5.58117
    5.58117
    5.58117
    5.58117
    5.58117
    5.58117
    5.58117
    5.58117
    5.58117
    5.58117
    5.58117
    5.58117
    5.58117
    5.58117
    5.58117
    5.58117
    5.58117
    5.58117
    5.58117
    5.58117
    5.58117
    5.58117
    5.58117
    5.58117
    5.58117
    5.58117
    5.58117
    5.58117
    5.58117
    5.58117
    5.58117
    5.58117
    5.58117
    5.58117
    5.58117
    5.58117
    5.58117
    5.58117
    5.58117
    5.58117
    5.58117
    5.58117
    5.58117
    5.58117
    5.58117
    5.58117
    5.58117
    5.58117
    5.58117
    5.58117
    5.58117
    5.58117
    5.58117
    5.58117
    5.58117
    5.58117
    5.58117
    5.58117
    5.58117
    5.58117
    5.58117
    5.58117
    5.58117
    5.58117
    5.58117
    5.58117
    5.58117
    5.58117
    5.58117
    5.58117
    5.58117
    5.58117
    5.58117
    5.58117
    5.58117
    5.58117
    5.58117
    5.58117
    5.58117
    5.58117
    5.58117
    5.58117
    5.58117
    5.58117
    5.58117
    5.58117
    5.58117
    5.58117
    5.58117
    5.58117
    5.58117
    5.58117
    5.58117
    5.58117
    5.58117
    5.58117
    5.58117
    5.58117
    5.58117
    5.58117
    5.58117
    5.58117
    5.58117
    5.58117
    5.58117
    5.58117
    5.58117
    5.58117
    5.58117
    5.58117
    5.58117
    5.58117
    5.58117
    5.58117
    5.58117
    5.58117
    5.58117
    5.58117
    5.58117
    5.58117
    5.58117
    5.58117
    5.58117
    5.58117
    5.58117
    5.58117
    5.58117
    5.58117
    5.58117
    5.58117
    5.58117
    5.58117
    5.58117
    5.58117
    5.58117
    5.58117
    5.58117
    5.58117
    5.58117
    5.58117
    5.58117
    5.58117
    5.58117
    5.58117
    5.58117
    5.58117
    5.58117
    5.58117
    5.58117
    5.58117
    5.58117
    5.58117
    5.58117
    5.58117
    5.58117
    5.58117
    5.58117
    5.58117
    5.58117
    5.58117
    5.58117
    5.58117
    5.58117
    5.58117
    5.58117
    5.58117
    5.58117
    5.58117
    5.58117
    5.58117
    5.58117
    5.58117
    5.58117
    5.58117
    5.58117
    5.58117
    5.58117
    5.58117
    5.58117
    5.58117
    5.58117
    5.58117
    5.58117
    5.58117
    5.58117
    5.58117
    5.58117
    5.58117
    5.58117
    5.58117
    5.58117
    5.58117
    5.58117
    5.58117
    5.58117
    5.58117
    5.58117
    5.58117
    5.58117
    5.58117
    5.58117
    5.58117
    5.58117
    5.58117
    5.58117
    5.58117
    5.58117
    5.58117
    5.58117
    5.58117
    5.58117
    5.58117
    5.58117
    5.58117
    5.58117
    5.58117
    5.58117
    5.58117
    5.58117
    5.58117
    5.58117
    5.58117
    5.58117
    5.58117
    5.58117
    5.58117
    5.58117
    5.58117
    5.58117
    5.58117
    5.58117
    5.58117
    5.58117
    5.58117
    5.58117
    5.58117
    5.58117
    5.58117
    5.58117
    5.58117
    5.58117
    5.58117
    5.58117
    5.58117
    5.58117
    5.58117
    5.58117
    5.58117
    5.58117
    5.58117
    5.58117
    5.58117
    5.58117
    5.58117
    5.58117
    5.58117
    5.58117
    5.58117
    5.58117
    5.58117
    5.58117
    5.58117
    5.58117
    5.58117
    5.58117
    5.58117
    5.58117
    5.58117
    5.58117
    5.58117
    5.58117
    5.58117
    5.58117
    5.58117
    5.58117
    5.58117
    5.58117
    5.58117
    5.58117
    5.58117
    5.58117
    5.58117
    5.58117
    5.58117
    5.58117
    5.58117
    5.58117
    5.58117
    5.58117
    5.58117
    5.58117
    5.58117
    5.58117
    5.58117
    5.58117
    5.58117
    5.58117
    5.58117
    5.58117
    5.58117
    5.58117
    5.58117
    5.58117
    5.58117
    5.58117
    5.58117
    5.58117
    5.58117
    5.58117
    5.58117
    5.58117
    5.58117
    5.58117
    5.58117
    5.58117
    5.58117
    5.58117
    5.58117
    5.58117
    5.58117
    5.58117
    5.58117
    5.58117
    5.58117
    5.58117
    5.58117
    5.58117
    5.58117
    5.58117
    5.58117
    5.58117
    5.58117
    5.58117
    5.58117
    5.58117
    5.58117
    5.58117
    5.58117
    5.58117
    5.58117
    5.58117
    5.58117
    5.58117
    5.58117
    5.58117
    5.58117
    5.58117
    5.58117
    5.58117
    5.58117
    5.58117
    5.58117
    5.58117
    5.58117
    5.58117
    5.58117
    5.58117
    5.58117
    5.58117
    5.58117
    5.58117
    5.58117
    5.58117
    5.58117
    5.58117
    5.58117
    5.58117
    5.58117
    5.58117
    5.58117
    5.58117
    5.58117
    5.58117
    5.58117
    5.58117
    5.58117
    5.58117
    5.58117
    5.58117
    5.58117
    5.58117
    5.58117
    5.58117
    5.58117
    5.58117
    5.58117
    5.58117
    5.58117
    5.58117
    5.58117
    5.58117
    5.58117
    5.58117
    5.58117
    5.58117
    5.58117
    5.58117
    5.58117
    5.58117
    5.58117
    5.58117
    5.58117
    5.58117
    5.58117
    5.58117
    5.58117
    5.58117
    5.58117
    5.58117
    5.58117
    5.58117
    5.58117
    5.58117
    5.58117
    5.58117
    5.58117
    5.58117
    5.58117
    5.58117
    5.58117
    5.58117
    5.58117
    5.58117
    5.58117
    5.58117
    5.58117
    5.58117
    5.58117
    5.58117
    5.58117
    5.58117
    5.58117
    5.58117
    5.58117
    5.58117
    5.58117
    5.58117
    5.58117
    29773.5
    28128.8
    26561.4
    7705.63
    7268.91
    6853.54
    6458.76
    898.566
    846.003
    796.153
    748.911
    104.489
    98.2078
    92.2692
    86.6591
    81.3639
    76.3702
    71.665
    67.2357
    18.1675
    17.04
    15.9817
    14.9893
    14.0597
    13.1899
    12.3769
    11.6179
    10.9103
    10.2513
    9.63854
    9.06952
    8.54197
    8.05367
    7.60252
    7.18653
    6.80379
    6.45251
    6.131
    5.83766
    5.58117
    5.58117
    5.58117
    5.58117
    5.58117
    5.58117
    5.58117
    5.58117
    5.58117
    5.58117
    5.58117
    5.58117
    5.58117
    5.58117
    5.58117
    5.58117
    5.58117
    5.58117
    5.58117
    5.58117
    5.58117
    5.58117
    5.58117
    5.58117
    5.58117
    5.58117
    5.58117
    5.58117
    5.58117
    5.58117
    5.58117
    5.58117
    5.58117
    5.58117
    5.58117
    5.58117
    5.58117
    5.58117
    5.58117
    5.58117
    5.58117
    5.58117
    5.58117
    5.58117
    5.58117
    5.58117
    5.58117
    5.58117
    5.58117
    5.58117
    5.58117
    5.58117
    5.58117
    5.58117
    5.58117
    5.58117
    5.58117
    5.58117
    5.58117
    5.58117
    5.58117
    5.58117
    5.58117
    5.58117
    5.58117
    5.58117
    5.58117
    5.58117
    5.58117
    5.58117
    5.58117
    5.58117
    5.58117
    5.58117
    5.58117
    5.58117
    5.58117
    5.58117
    5.58117
    5.58117
    5.58117
    5.58117
    5.58117
    5.58117
    5.58117
    5.58117
    5.58117
    5.58117
    5.58117
    5.58117
    5.58117
    5.58117
    5.58117
    5.58117
    5.58117
    5.58117
    5.58117
    5.58117
    5.58117
    5.58117
    5.58117
    5.58117
    5.58117
    5.58117
    5.58117
    5.58117
    5.58117
    5.58117
    5.58117
    5.58117
    5.58117
    5.58117
    5.58117
    5.58117
    5.58117
    5.58117
    5.58117
    5.58117
    5.58117
    5.58117
    5.58117
    5.58117
    5.58117
    5.58117
    5.58117
    5.58117
    5.58117
    5.58117
    5.58117
    5.58117
    5.58117
    5.58117
    5.58117
    5.58117
    5.58117
    5.58117
    5.58117
    5.58117
    5.58117
    5.58117
    5.58117
    5.58117
    5.58117
    5.58117
    5.58117
    5.58117
    5.58117
    5.58117
    5.58117
    5.58117
    5.58117
    5.58117
    5.58117
    5.58117
    5.58117
    5.58117
    5.58117
    5.58117
    5.58117
    5.58117
    5.58117
    5.58117
    5.58117
    5.58117
    5.58117
    5.58117
    5.58117
    5.58117
    5.58117
    5.58117
    5.58117
    5.58117
    5.58117
    5.58117
    5.58117
    5.58117
    5.58117
    5.58117
    5.58117
    5.58117
    5.58117
    5.58117
    5.58117
    5.58117
    5.58117
    5.58117
    5.58117
    5.58117
    5.58117
    5.58117
    5.58117
    5.58117
    5.58117
    5.58117
    5.58117
    5.58117
    5.58117
    5.58117
    5.58117
    5.58117
    5.58117
    5.58117
    5.58117
    5.58117
    5.58117
    5.58117
    5.58117
    5.58117
    5.58117
    5.58117
    5.58117
    5.58117
    5.58117
    5.58117
    5.58117
    5.58117
    5.58117
    5.58117
    5.58117
    5.58117
    5.58117
    5.58117
    5.58117
    5.58117
    5.58117
    5.58117
    5.58117
    5.58117
    5.58117
    5.58117
    5.58117
    5.58117
    5.58117
    5.58117
    5.58117
    5.58117
    5.58117
    5.58117
    5.58117
    5.58117
    5.58117
    5.58117
    5.58117
    5.58117
    5.58117
    5.58117
    5.58117
    5.58117
    5.58117
    5.58117
    5.58117
    5.58117
    5.58117
    5.58117
    5.58117
    5.58117
    5.58117
    5.58117
    5.58117
    5.58117
    5.58117
    5.58117
    5.58117
    5.58117
    5.58117
    5.58117
    5.58117
    5.58117
    5.58117
    5.58117
    5.58117
    5.58117
    5.58117
    5.58117
    5.58117
    5.58117
    5.58117
    5.58117
    5.58117
    5.58117
    5.58117
    5.58117
    5.58117
    5.58117
    5.58117
    5.58117
    5.58117
    5.58117
    5.58117
    5.58117
    5.58117
    5.58117
    5.58117
    5.58117
    5.58117
    5.58117
    5.58117
    5.58117
    5.58117
    5.58117
    5.58117
    5.58117
    5.58117
    5.58117
    5.58117
    5.58117
    5.58117
    5.58117
    5.58117
    5.58117
    5.58117
    5.58117
    5.58117
    5.58117
    5.58117
    5.58117
    5.58117
    5.58117
    5.58117
    5.58117
    5.58117
    5.58117
    5.58117
    5.58117
    5.58117
    5.58117
    5.58117
    5.58117
    5.58117
    5.58117
    5.58117
    5.58117
    5.58117
    5.58117
    5.58117
    5.58117
    5.58117
    5.58117
    5.58117
    5.58117
    5.58117
    5.58117
    5.58117
    5.58117
    5.58117
    5.58117
    5.58117
    5.58117
    5.58117
    5.58117
    5.58117
    5.58117
    5.58117
    5.58117
    5.58117
    5.58117
    5.58117
    5.58117
    5.58117
    5.58117
    5.58117
    5.58117
    5.58117
    5.58117
    5.58117
    5.58117
    5.58117
    5.58117
    5.58117
    5.58117
    5.58117
    5.58117
    5.58117
    5.58117
    5.58117
    5.58117
    5.58117
    5.58117
    5.58117
    5.58117
    5.58117
    5.58117
    5.58117
    5.58117
    5.58117
    5.58117
    5.58117
    5.58117
    5.58117
    5.58117
    5.58117
    5.58117
    5.58117
    5.58117
    5.58117
    5.58117
    5.58117
    5.58117
    5.58117
    5.58117
    5.58117
    5.58117
    5.58117
    5.58117
    5.58117
    5.58117
    5.58117
    5.58117
    5.58117
    5.58117
    5.58117
    5.58117
    5.58117
    5.58117
    5.58117
    5.58117
    5.58117
    5.58117
    5.58117
    5.58117
    5.58117
    5.58117
    5.58117
    5.58117
    5.58117
    5.58117
    5.58117
    5.58117
    5.58117
    5.58117
    5.58117
    5.58117
    5.58117
    5.58117
    5.58117
    5.58117
    5.58117
    5.58117
    5.58117
    5.58117
    5.58117
    5.58117
    5.58117
    5.58117
    5.58117
    5.58117
    5.58117
    5.58117
    5.58117
    5.58117
    5.58117
    5.58117
    5.58117
    5.58117
    5.58117
    5.58117
    5.58117
    5.58117
    5.58117
    5.58117
    5.58117
    5.58117
    5.58117
    5.58117
    5.58117
    5.58117
    5.58117
    5.58117
    5.58117
    5.58117
    5.58117
    5.58117
    5.58117
    5.58117
    5.58117
    5.58117
    5.58117
    5.58117
    5.58117
    5.58117
    5.58117
    5.58117
    5.58117
    5.58117
    5.58117
    5.58117
    5.58117
    5.58117
    5.58117
    5.58117
    5.58117
    5.58117
    5.58117
    5.58117
    5.58117
    5.58117
    5.58117
    5.58117
    5.58117
    5.58117
    5.58117
    5.58117
    5.58117
    5.58117
    5.58117
    5.58117
    5.58117
    5.58117
    5.58117
    5.58117
    5.58117
    5.58117
    5.58117
    5.58117
    5.58117
    5.58117
    5.58117
    5.58117
    5.58117
    5.58117
    5.58117
    5.58117
    5.58117
    5.58117
    5.58117
    5.58117
    5.58117
    5.58117
    5.58117
    5.58117
    5.58117
    5.58117
    5.58117
    5.58117
    5.58117
    5.58117
    5.58117
    5.58117
    5.58117
    5.58117
    5.58117
    5.58117
    5.58117
    5.58117
    5.58117
    5.58117
    5.58117
    5.58117
    5.58117
    5.58117
    5.58117
    5.58117
    5.58117
    5.58117
    5.58117
    5.58117
    5.58117
    5.58117
    5.58117
    5.58117
    5.58117
    5.58117
    5.58117
    5.58117
    5.58117
    5.58117
    5.58117
    5.58117
    5.58117
    5.58117
    5.58117
    5.58117
    5.58117
    5.58117
    5.58117
    5.58117
    5.58117
    5.58117
    5.58117
    5.58117
    5.58117
    5.58117
    5.58117
    5.58117
    5.58117
    5.58117
    5.58117
    5.58117
    5.58117
    5.58117
    5.58117
    5.58117
    5.58117
    5.58117
    5.58117
    5.58117
    5.58117
    5.58117
    5.58117
    5.58117
    5.58117
    5.58117
    5.58117
    5.58117
    5.58117
    5.58117
    5.58117
    5.58117
    5.58117
    5.58117
    5.58117
    5.58117
    5.58117
    5.58117
    5.58117
    5.58117
    5.58117
    5.58117
    5.58117
    5.58117
    5.58117
    5.58117
    5.58117
    5.58117
    5.58117
    5.58117
    5.58117
    5.58117
    5.58117
    5.58117
    5.58117
    5.58117
    5.58117
    5.58117
    5.58117
    5.58117
    5.58117
    5.58117
    5.58117
    5.58117
    5.58117
    5.58117
    5.58117
    5.58117
    5.58117
    5.58117
    5.58117
    5.58117
    5.58117
    5.58117
    5.58117
    5.58117
    5.58117
    5.58117
    5.58117
    5.58117
    5.58117
    5.58117
    5.58117
    5.58117
    5.58117
    5.58117
    5.58117
    5.58117
    5.58117
    5.58117
    5.58117
    5.58117
    5.58117
    5.58117
    5.58117
    5.58117
    5.58117
    5.58117
    5.58117
    5.58117
    5.58117
    5.58117
    5.58117
    5.58117
    5.58117
    5.58117
    5.58117
    5.58117
    5.58117
    5.58117
    5.58117
    5.58117
    5.58117
    5.58117
    5.58117
    5.58117
    5.58117
    5.58117
    5.58117
    5.58117
    5.58117
    5.58117
    5.58117
    5.58117
    5.58117
    5.58117
    5.58117
    5.58117
    5.58117
    5.58117
    5.58117
    5.58117
    5.58117
    5.58117
    5.58117
    5.58117
    5.58117
    5.58117
    5.58117
    5.58117
    5.58117
    5.58117
    5.58117
    5.58117
    5.58117
    5.58117
    5.58117
    5.58117
    5.58117
    5.58117
    5.58117
    5.58117
    5.58117
    5.58117
    5.58117
    5.58117
    5.58117
    5.58117
    5.58117
    5.58117
    5.58117
    5.58117
    5.58117
    5.58117
    5.58117
    5.58117
    5.58117
    5.58117
    5.58117
    5.58117
    5.58117
    5.58117
    5.58117
    5.58117
    5.58117
    5.58117
    5.58117
    5.58117
    5.58117
    5.58117
    5.58117
    5.58117
    5.58117
    5.58117
    5.58117
    5.58117
    5.58117
    5.58117
    5.58117
    5.58117
    5.58117
    5.58117
    5.58117
    5.58117
    5.58117
    5.58117
    5.58117
    5.58117
    5.58117
    5.58117
    5.58117
    5.58117
    5.58117
    5.58117
    5.58117
    5.58117
    5.58117
    5.58117
    5.58117
    5.58117
    5.58117
    5.58117
    5.58117
    5.58117
    5.58117
    5.58117
    5.58117
    5.58117
    5.58117
    5.58117
    5.58117
    5.58117
    5.58117
    5.58117
    5.58117
    5.58117
    5.58117
    5.58117
    5.58117
    5.58117
    5.58117
    5.58117
    5.58117
    5.58117
    5.58117
    5.58117
    5.58117
    5.58117
    5.58117
    5.58117
    5.58117
    5.58117
    5.58117
    5.58117
    5.58117
    5.58117
    5.58117
    5.58117
    5.58117
    5.58117
    5.58117
    5.58117
    5.58117
    5.58117
    5.58117
    5.58117
    5.58117
    5.58117
    5.58117
    5.58117
    5.58117
    5.58117
    5.58117
    5.58117
    5.58117
    5.58117
    5.58117
    5.58117
    5.58117
    5.58117
    5.58117
    5.58117
    5.58117
    5.58117
    5.58117
    5.58117
    5.58117
    5.58117
    5.58117
    5.58117
    5.58117
    5.58117
    5.58117
    5.58117
    5.58117
    5.58117
    5.58117
    5.58117
    5.58117
    5.58117
    5.58117
    5.58117
    5.58117
    5.58117
    5.58117
    5.58117
    5.58117
    5.58117
    5.58117
    5.58117
    5.58117
    5.58117
    5.58117
    5.58117
    5.58117
    5.58117
    5.58117
    5.58117
    5.58117
    5.58117
    5.58117
    5.58117
    5.58117
    5.58117
    5.58117
    5.58117
    5.58117
    5.58117
    5.58117
    5.58117
    5.58117
    5.58117
    5.58117
    5.58117
    5.58117
    5.58117
    5.58117
    5.58117
    5.58117
    5.58117
    5.58117
    5.58117
    5.58117
    5.58117
    5.58117
    5.58117
    5.58117
    5.58117
    5.58117
    5.58117
    5.58117
    5.58117
    5.58117
    5.58117
    5.58117
    5.58117
    5.58117
    5.58117
    5.58117
    5.58117
    5.58117
    5.58117
    5.58117
    5.58117
    5.58117
    5.58117
    5.58117
    5.58117
    5.58117
    5.58117
    5.58117
    5.58117
    5.58117
    5.58117
    5.58117
    5.58117
    5.58117
    5.58117
    5.58117
    5.58117
    5.58117
    5.58117
    5.58117
    5.58117
    5.58117
    5.58117
    5.58117
    5.58117
    5.58117
    5.58117
    5.58117
    5.58117
    5.58117
    5.58117
)

// *********************** vim: set ft=cpp et sw=4 : *********************** //
