FoamFile
{
    version         2.0;
    format          ascii;
    class           scalarAverageField;
    object          k;
    note            "From experimental data, scaled for Ucoflow = 35 m/s";
}

// * * * * * * * * * * * * * * * * * * * * * * * * * * * * * * * * * * * * * //

// average
0

// data
(
    3.8922
    3.67718
    3.47228
    3.27713
    3.0914
    2.91475
    2.74685
    2.58738
    2.43603
    2.29249
    2.15645
    2.02764
    1.90575
    1.79051
    1.68164
    1.57889
    1.48199
    1.39068
    1.30473
    1.22389
    1.14793
    1.07664
    1.00978
    0.94716
    0.888562
    0.833794
    0.782665
    0.734992
    0.6906
    0.649318
    0.610986
    0.575446
    0.542551
    0.512158
    0.484134
    0.45835
    0.434685
    0.413026
    0.393265
    0.375986
    0.375986
    0.375986
    0.375986
    0.375986
    0.375986
    0.375986
    0.375986
    0.375986
    0.375986
    0.375986
    0.375986
    0.375986
    0.375986
    0.375986
    0.375986
    0.375986
    0.375986
    0.375986
    0.375986
    0.375986
    0.375986
    0.375986
    0.375986
    0.375986
    0.375986
    0.375986
    0.375986
    0.375986
    0.375986
    0.375986
    0.375986
    0.375986
    0.375986
    0.375986
    0.375986
    0.375986
    0.375986
    0.375986
    0.375986
    0.375986
    0.375986
    0.375986
    0.375986
    0.375986
    0.375986
    0.375986
    0.375986
    0.375986
    0.375986
    0.375986
    0.375986
    0.375986
    0.375986
    0.375986
    0.375986
    0.375986
    0.375986
    0.375986
    0.375986
    0.375986
    0.375986
    0.375986
    0.375986
    0.375986
    0.375986
    0.375986
    0.375986
    0.375986
    0.375986
    0.375986
    0.375986
    0.375986
    0.375986
    0.375986
    0.375986
    0.375986
    0.375986
    0.375986
    0.375986
    0.375986
    0.375986
    0.375986
    0.375986
    0.375986
    0.375986
    0.375986
    0.375986
    0.375986
    0.375986
    0.375986
    0.375986
    0.375986
    0.375986
    0.375986
    0.375986
    0.375986
    0.375986
    0.375986
    0.375986
    0.375986
    0.375986
    0.375986
    0.375986
    0.375986
    0.375986
    0.375986
    0.375986
    0.375986
    0.375986
    0.375986
    0.375986
    0.375986
    0.375986
    0.375986
    0.375986
    0.375986
    0.375986
    0.375986
    0.375986
    0.375986
    0.375986
    0.375986
    0.375986
    0.375986
    0.375986
    0.375986
    0.375986
    0.375986
    0.375986
    0.375986
    0.375986
    0.375986
    0.375986
    0.375986
    0.375986
    0.375986
    0.375986
    0.375986
    0.375986
    0.375986
    0.375986
    0.375986
    0.375986
    0.375986
    0.375986
    0.375986
    0.375986
    0.375986
    0.375986
    0.375986
    0.375986
    0.375986
    0.375986
    0.375986
    0.375986
    0.375986
    0.375986
    0.375986
    0.375986
    0.375986
    0.375986
    0.375986
    0.375986
    0.375986
    0.375986
    0.375986
    0.375986
    0.375986
    0.375986
    0.375986
    0.375986
    0.375986
    0.375986
    0.375986
    0.375986
    0.375986
    0.375986
    0.375986
    0.375986
    0.375986
    0.375986
    0.375986
    0.375986
    0.375986
    0.375986
    0.375986
    0.375986
    0.375986
    0.375986
    0.375986
    0.375986
    0.375986
    0.375986
    0.375986
    0.375986
    0.375986
    0.375986
    0.375986
    0.375986
    0.375986
    0.375986
    0.375986
    0.375986
    0.375986
    0.375986
    0.375986
    0.375986
    0.375986
    0.375986
    0.375986
    0.375986
    0.375986
    0.375986
    0.375986
    0.375986
    0.375986
    0.375986
    0.375986
    0.375986
    0.375986
    0.375986
    0.375986
    0.375986
    0.375986
    0.375986
    0.375986
    0.375986
    0.375986
    0.375986
    0.375986
    0.375986
    0.375986
    0.375986
    0.375986
    0.375986
    0.375986
    0.375986
    0.375986
    0.375986
    0.375986
    0.375986
    0.375986
    0.375986
    0.375986
    0.375986
    0.375986
    0.375986
    0.375986
    0.375986
    0.375986
    0.375986
    0.375986
    0.375986
    0.375986
    0.375986
    0.375986
    0.375986
    0.375986
    0.375986
    0.375986
    0.375986
    0.375986
    0.375986
    0.375986
    0.375986
    0.375986
    0.375986
    0.375986
    0.375986
    0.375986
    0.375986
    0.375986
    0.375986
    0.375986
    0.375986
    0.375986
    0.375986
    0.375986
    0.375986
    0.375986
    0.375986
    0.375986
    0.375986
    0.375986
    0.375986
    0.375986
    0.375986
    0.375986
    0.375986
    0.375986
    0.375986
    0.375986
    0.375986
    0.375986
    0.375986
    0.375986
    0.375986
    0.375986
    0.375986
    0.375986
    0.375986
    0.375986
    0.375986
    0.375986
    0.375986
    0.375986
    0.375986
    0.375986
    0.375986
    0.375986
    0.375986
    0.375986
    0.375986
    0.375986
    0.375986
    0.375986
    0.375986
    0.375986
    0.375986
    0.375986
    0.375986
    0.375986
    0.375986
    0.375986
    0.375986
    0.375986
    0.375986
    0.375986
    0.375986
    0.375986
    0.375986
    0.375986
    0.375986
    0.375986
    0.375986
    0.375986
    0.375986
    0.375986
    0.375986
    0.375986
    0.375986
    0.375986
    0.375986
    0.375986
    0.375986
    0.375986
    0.375986
    0.375986
    0.375986
    0.375986
    0.375986
    0.375986
    0.375986
    0.375986
    0.375986
    0.375986
    0.375986
    0.375986
    0.375986
    0.375986
    0.375986
    0.375986
    0.375986
    0.375986
    0.375986
    0.375986
    0.375986
    0.375986
    0.375986
    0.375986
    0.375986
    0.375986
    0.375986
    0.375986
    0.375986
    0.375986
    0.375986
    0.375986
    0.375986
    0.375986
    0.375986
    0.375986
    0.375986
    0.375986
    0.375986
    0.375986
    0.375986
    0.375986
    0.375986
    0.375986
    0.375986
    0.375986
    0.375986
    0.375986
    0.375986
    0.375986
    0.375986
    0.375986
    0.375986
    0.375986
    0.375986
    0.375986
    0.375986
    0.375986
    0.375986
    0.375986
    0.375986
    0.375986
    0.375986
    0.375986
    0.375986
    0.375986
    0.375986
    0.375986
    0.375986
    0.375986
    0.375986
    0.375986
    0.375986
    0.375986
    0.375986
    0.375986
    0.375986
    0.375986
    0.375986
    0.375986
    0.375986
    0.375986
    0.375986
    0.375986
    0.375986
    0.375986
    0.375986
    0.375986
    0.375986
    0.375986
    0.375986
    0.375986
    0.375986
    0.375986
    0.375986
    0.375986
    0.375986
    0.375986
    0.375986
    0.375986
    0.375986
    0.375986
    0.375986
    0.375986
    0.375986
    0.375986
    0.375986
    0.375986
    0.375986
    0.375986
    0.375986
    0.375986
    0.375986
    0.375986
    0.375986
    0.375986
    0.375986
    0.375986
    0.375986
    0.375986
    0.375986
    0.375986
    0.375986
    0.375986
    0.375986
    0.375986
    0.375986
    0.375986
    0.375986
    0.375986
    0.375986
    0.375986
    0.375986
    0.375986
    0.375986
    0.375986
    0.375986
    0.375986
    0.375986
    0.375986
    0.375986
    0.375986
    0.375986
    0.375986
    0.375986
    0.375986
    0.375986
    0.375986
    0.375986
    0.375986
    0.375986
    0.375986
    0.375986
    0.375986
    0.375986
    0.375986
    0.375986
    0.375986
    0.375986
    0.375986
    0.375986
    0.375986
    0.375986
    0.375986
    0.375986
    0.375986
    0.375986
    0.375986
    0.375986
    0.375986
    0.375986
    0.375986
    0.375986
    0.375986
    0.375986
    0.375986
    0.375986
    0.375986
    0.375986
    0.375986
    0.375986
    0.375986
    0.375986
    0.375986
    0.375986
    0.375986
    0.375986
    0.375986
    0.375986
    0.375986
    0.375986
    0.375986
    0.375986
    0.375986
    0.375986
    0.375986
    0.375986
    0.375986
    0.375986
    0.375986
    0.375986
    0.375986
    0.375986
    0.375986
    0.375986
    0.375986
    0.375986
    0.375986
    0.375986
    0.375986
    0.375986
    0.375986
    0.375986
    0.375986
    0.375986
    0.375986
    0.375986
    0.375986
    0.375986
    0.375986
    0.375986
    0.375986
    0.375986
    0.375986
    0.375986
    0.375986
    0.375986
    0.375986
    0.375986
    0.375986
    0.375986
    0.375986
    0.375986
    0.375986
    0.375986
    0.375986
    0.375986
    0.375986
    0.375986
    0.375986
    0.375986
    0.375986
    0.375986
    0.375986
    0.375986
    0.375986
    0.375986
    0.375986
    0.375986
    0.375986
    0.375986
    0.375986
    0.375986
    0.375986
    0.375986
    0.375986
    0.375986
    0.375986
    0.375986
    0.375986
    0.375986
    0.375986
    0.375986
    0.375986
    0.375986
    0.375986
    0.375986
    0.375986
    0.375986
    0.375986
    0.375986
    0.375986
    0.375986
    0.375986
    0.375986
    0.375986
    0.375986
    0.375986
    0.375986
    0.375986
    0.375986
    0.375986
    0.375986
    0.375986
    0.375986
    0.375986
    0.375986
    0.375986
    0.375986
    0.375986
    0.375986
    0.375986
    0.375986
    0.375986
    0.375986
    0.375986
    0.375986
    0.375986
    0.375986
    0.375986
    0.375986
    0.375986
    0.375986
    0.375986
    0.375986
    0.375986
    0.375986
    0.375986
    0.375986
    0.375986
    0.375986
    0.375986
    0.375986
    0.375986
    0.375986
    0.375986
    0.375986
    0.375986
    0.375986
    0.375986
    0.375986
    0.375986
    0.375986
    0.375986
    0.375986
    0.375986
    0.375986
    0.375986
    0.375986
    0.375986
    0.375986
    0.375986
    0.375986
    0.375986
    0.375986
    0.375986
    0.375986
    0.375986
    0.375986
    0.375986
    0.375986
    0.375986
    0.375986
    0.375986
    0.375986
    0.375986
    0.375986
    0.375986
    0.375986
    0.375986
    0.375986
    0.375986
    0.375986
    0.375986
    0.375986
    0.375986
    0.375986
    0.375986
    0.375986
    0.375986
    0.375986
    0.375986
    0.375986
    0.375986
    0.375986
    0.375986
    0.375986
    0.375986
    0.375986
    0.375986
    0.375986
    0.375986
    0.375986
    0.375986
    0.375986
    0.375986
    0.375986
    0.375986
    0.375986
    0.375986
    0.375986
    0.375986
    0.375986
    0.375986
    0.375986
    0.375986
    0.375986
    0.375986
    0.375986
    0.375986
    0.375986
    0.375986
    0.375986
    0.375986
    0.375986
    0.375986
    0.375986
    0.375986
    0.375986
    0.375986
    0.375986
    0.375986
    0.375986
    0.375986
    0.375986
    0.375986
    0.375986
    0.375986
    0.375986
    0.375986
    0.375986
    0.375986
    0.375986
    0.375986
    0.375986
    0.375986
    0.375986
    0.375986
    0.375986
    0.375986
    0.375986
    0.375986
    0.375986
    0.375986
    0.375986
    0.375986
    0.375986
    0.375986
    0.375986
    0.375986
    0.375986
    0.375986
    0.375986
    0.375986
    0.375986
    0.375986
    0.375986
    0.375986
    0.375986
    0.375986
    0.375986
    0.375986
    0.375986
    0.375986
    0.375986
    0.375986
    0.375986
    0.375986
    0.375986
    0.375986
    0.375986
    0.375986
    0.375986
    0.375986
    0.375986
    0.375986
    0.375986
    0.375986
    0.375986
    0.375986
    0.375986
    0.375986
    0.375986
    0.375986
    0.375986
    0.375986
    0.375986
    0.375986
    0.375986
    0.375986
    0.375986
    0.375986
    0.375986
    0.375986
    0.375986
    0.375986
    0.375986
    0.375986
    0.375986
    0.375986
    0.375986
    0.375986
    0.375986
    0.375986
    0.375986
    0.375986
    0.375986
    0.375986
    0.375986
    0.375986
    0.375986
    0.375986
    0.375986
    0.375986
    0.375986
    0.375986
    0.375986
    0.375986
    0.375986
    0.375986
    0.375986
    0.375986
    0.375986
    0.375986
    0.375986
    0.375986
    0.375986
    0.375986
    0.375986
    0.375986
    0.375986
    0.375986
    0.375986
    0.375986
    0.375986
    0.375986
    0.375986
    0.375986
    0.375986
    0.375986
    0.375986
    0.375986
    0.375986
    0.375986
    0.375986
    0.375986
    0.375986
    0.375986
    0.375986
    0.375986
    0.375986
    0.375986
    0.375986
    0.375986
    0.375986
    0.375986
    0.375986
    0.375986
    0.375986
    0.375986
    0.375986
    0.375986
    0.375986
    0.375986
    0.375986
    0.375986
    0.375986
    0.375986
    0.375986
    0.375986
    0.375986
    0.375986
    0.375986
    0.375986
    0.375986
    0.375986
    0.375986
    0.375986
    0.375986
    0.375986
    0.375986
    0.375986
    0.375986
    0.375986
    0.375986
    0.375986
    0.375986
    0.375986
    0.375986
    0.375986
    0.375986
    0.375986
    0.375986
    0.375986
    0.375986
    0.375986
    0.375986
    0.375986
    0.375986
    0.375986
    0.375986
    0.375986
    0.375986
    0.375986
    0.375986
    0.375986
    0.375986
    0.375986
    0.375986
    0.375986
    0.375986
    0.375986
    0.375986
    0.375986
    0.375986
    0.375986
    0.375986
    0.375986
    0.375986
    0.375986
    0.375986
    0.375986
    0.375986
    0.375986
    0.375986
    0.375986
    0.375986
    0.375986
    0.375986
    0.375986
    0.375986
    0.375986
    0.375986
    3.8922
    3.67718
    3.47228
    3.27713
    3.0914
    2.91475
    2.74685
    2.58738
    2.43603
    2.29249
    2.15645
    2.02764
    1.90575
    1.79051
    1.68164
    1.57889
    1.48199
    1.39068
    1.30473
    1.22389
    1.14793
    1.07664
    1.00978
    0.94716
    0.888562
    0.833794
    0.782665
    0.734992
    0.6906
    0.649318
    0.610986
    0.575446
    0.542551
    0.512158
    0.484134
    0.45835
    0.434685
    0.413026
    0.393265
    0.375986
    0.375986
    0.375986
    0.375986
    0.375986
    0.375986
    0.375986
    0.375986
    0.375986
    0.375986
    0.375986
    0.375986
    0.375986
    0.375986
    0.375986
    0.375986
    0.375986
    0.375986
    0.375986
    0.375986
    0.375986
    0.375986
    0.375986
    0.375986
    0.375986
    0.375986
    0.375986
    0.375986
    0.375986
    0.375986
    0.375986
    0.375986
    0.375986
    0.375986
    0.375986
    0.375986
    0.375986
    0.375986
    0.375986
    0.375986
    0.375986
    0.375986
    0.375986
    0.375986
    0.375986
    0.375986
    0.375986
    0.375986
    0.375986
    0.375986
    0.375986
    0.375986
    0.375986
    0.375986
    0.375986
    0.375986
    0.375986
    0.375986
    0.375986
    0.375986
    0.375986
    0.375986
    0.375986
    0.375986
    0.375986
    0.375986
    0.375986
    0.375986
    0.375986
    0.375986
    0.375986
    0.375986
    0.375986
    0.375986
    0.375986
    0.375986
    0.375986
    0.375986
    0.375986
    0.375986
    0.375986
    0.375986
    0.375986
    0.375986
    0.375986
    0.375986
    0.375986
    0.375986
    0.375986
    0.375986
    0.375986
    0.375986
    0.375986
    0.375986
    0.375986
    0.375986
    0.375986
    0.375986
    0.375986
    0.375986
    0.375986
    0.375986
    0.375986
    0.375986
    0.375986
    0.375986
    0.375986
    0.375986
    0.375986
    0.375986
    0.375986
    0.375986
    0.375986
    0.375986
    0.375986
    0.375986
    0.375986
    0.375986
    0.375986
    0.375986
    0.375986
    0.375986
    0.375986
    0.375986
    0.375986
    0.375986
    0.375986
    0.375986
    0.375986
    0.375986
    0.375986
    0.375986
    0.375986
    0.375986
    0.375986
    0.375986
    0.375986
    0.375986
    0.375986
    0.375986
    0.375986
    0.375986
    0.375986
    0.375986
    0.375986
    0.375986
    0.375986
    0.375986
    0.375986
    0.375986
    0.375986
    0.375986
    0.375986
    0.375986
    0.375986
    0.375986
    0.375986
    0.375986
    0.375986
    0.375986
    0.375986
    0.375986
    0.375986
    0.375986
    0.375986
    0.375986
    0.375986
    0.375986
    0.375986
    0.375986
    0.375986
    0.375986
    0.375986
    0.375986
    0.375986
    0.375986
    0.375986
    0.375986
    0.375986
    0.375986
    0.375986
    0.375986
    0.375986
    0.375986
    0.375986
    0.375986
    0.375986
    0.375986
    0.375986
    0.375986
    0.375986
    0.375986
    0.375986
    0.375986
    0.375986
    0.375986
    0.375986
    0.375986
    0.375986
    0.375986
    0.375986
    0.375986
    0.375986
    0.375986
    0.375986
    0.375986
    0.375986
    0.375986
    0.375986
    0.375986
    0.375986
    0.375986
    0.375986
    0.375986
    0.375986
    0.375986
    0.375986
    0.375986
    0.375986
    0.375986
    0.375986
    0.375986
    0.375986
    0.375986
    0.375986
    0.375986
    0.375986
    0.375986
    0.375986
    0.375986
    0.375986
    0.375986
    0.375986
    0.375986
    0.375986
    0.375986
    0.375986
    0.375986
    0.375986
    0.375986
    0.375986
    0.375986
    0.375986
    0.375986
    0.375986
    0.375986
    0.375986
    0.375986
    0.375986
    0.375986
    0.375986
    0.375986
    0.375986
    0.375986
    0.375986
    0.375986
    0.375986
    0.375986
    0.375986
    0.375986
    0.375986
    0.375986
    0.375986
    0.375986
    0.375986
    0.375986
    0.375986
    0.375986
    0.375986
    0.375986
    0.375986
    0.375986
    0.375986
    0.375986
    0.375986
    0.375986
    0.375986
    0.375986
    0.375986
    0.375986
    0.375986
    0.375986
    0.375986
    0.375986
    0.375986
    0.375986
    0.375986
    0.375986
    0.375986
    0.375986
    0.375986
    0.375986
    0.375986
    0.375986
    0.375986
    0.375986
    0.375986
    0.375986
    0.375986
    0.375986
    0.375986
    0.375986
    0.375986
    0.375986
    0.375986
    0.375986
    0.375986
    0.375986
    0.375986
    0.375986
    0.375986
    0.375986
    0.375986
    0.375986
    0.375986
    0.375986
    0.375986
    0.375986
    0.375986
    0.375986
    0.375986
    0.375986
    0.375986
    0.375986
    0.375986
    0.375986
    0.375986
    0.375986
    0.375986
    0.375986
    0.375986
    0.375986
    0.375986
    0.375986
    0.375986
    0.375986
    0.375986
    0.375986
    0.375986
    0.375986
    0.375986
    0.375986
    0.375986
    0.375986
    0.375986
    0.375986
    0.375986
    0.375986
    0.375986
    0.375986
    0.375986
    0.375986
    0.375986
    0.375986
    0.375986
    0.375986
    0.375986
    0.375986
    0.375986
    0.375986
    0.375986
    0.375986
    0.375986
    0.375986
    0.375986
    0.375986
    0.375986
    0.375986
    0.375986
    0.375986
    0.375986
    0.375986
    0.375986
    0.375986
    0.375986
    0.375986
    0.375986
    0.375986
    0.375986
    0.375986
    0.375986
    0.375986
    0.375986
    0.375986
    0.375986
    0.375986
    0.375986
    0.375986
    0.375986
    0.375986
    0.375986
    0.375986
    0.375986
    0.375986
    0.375986
    0.375986
    0.375986
    0.375986
    0.375986
    0.375986
    0.375986
    0.375986
    0.375986
    0.375986
    0.375986
    0.375986
    0.375986
    0.375986
    0.375986
    0.375986
    0.375986
    0.375986
    0.375986
    0.375986
    0.375986
    0.375986
    0.375986
    0.375986
    0.375986
    0.375986
    0.375986
    0.375986
    0.375986
    0.375986
    0.375986
    0.375986
    0.375986
    0.375986
    0.375986
    0.375986
    0.375986
    0.375986
    0.375986
    0.375986
    0.375986
    0.375986
    0.375986
    0.375986
    0.375986
    0.375986
    0.375986
    0.375986
    0.375986
    0.375986
    0.375986
    0.375986
    0.375986
    0.375986
    0.375986
    0.375986
    0.375986
    0.375986
    0.375986
    0.375986
    0.375986
    0.375986
    0.375986
    0.375986
    0.375986
    0.375986
    0.375986
    0.375986
    0.375986
    0.375986
    0.375986
    0.375986
    0.375986
    0.375986
    0.375986
    0.375986
    0.375986
    0.375986
    0.375986
    0.375986
    0.375986
    0.375986
    0.375986
    0.375986
    0.375986
    0.375986
    0.375986
    0.375986
    0.375986
    0.375986
    0.375986
    0.375986
    0.375986
    0.375986
    0.375986
    0.375986
    0.375986
    0.375986
    0.375986
    0.375986
    0.375986
    0.375986
    0.375986
    0.375986
    0.375986
    0.375986
    0.375986
    0.375986
    0.375986
    0.375986
    0.375986
    0.375986
    0.375986
    0.375986
    0.375986
    0.375986
    0.375986
    0.375986
    0.375986
    0.375986
    0.375986
    0.375986
    0.375986
    0.375986
    0.375986
    0.375986
    0.375986
    0.375986
    0.375986
    0.375986
    0.375986
    0.375986
    0.375986
    0.375986
    0.375986
    0.375986
    0.375986
    0.375986
    0.375986
    0.375986
    0.375986
    0.375986
    0.375986
    0.375986
    0.375986
    0.375986
    0.375986
    0.375986
    0.375986
    0.375986
    0.375986
    0.375986
    0.375986
    0.375986
    0.375986
    0.375986
    0.375986
    0.375986
    0.375986
    0.375986
    0.375986
    0.375986
    0.375986
    0.375986
    0.375986
    0.375986
    0.375986
    0.375986
    0.375986
    0.375986
    0.375986
    0.375986
    0.375986
    0.375986
    0.375986
    0.375986
    0.375986
    0.375986
    0.375986
    0.375986
    0.375986
    0.375986
    0.375986
    0.375986
    0.375986
    0.375986
    0.375986
    0.375986
    0.375986
    0.375986
    0.375986
    0.375986
    0.375986
    0.375986
    0.375986
    0.375986
    0.375986
    0.375986
    0.375986
    0.375986
    0.375986
    0.375986
    0.375986
    0.375986
    0.375986
    0.375986
    0.375986
    0.375986
    0.375986
    0.375986
    0.375986
    0.375986
    0.375986
    0.375986
    0.375986
    0.375986
    0.375986
    0.375986
    0.375986
    0.375986
    0.375986
    0.375986
    0.375986
    0.375986
    0.375986
    0.375986
    0.375986
    0.375986
    0.375986
    0.375986
    0.375986
    0.375986
    0.375986
    0.375986
    0.375986
    0.375986
    0.375986
    0.375986
    0.375986
    0.375986
    0.375986
    0.375986
    0.375986
    0.375986
    0.375986
    0.375986
    0.375986
    0.375986
    0.375986
    0.375986
    0.375986
    0.375986
    0.375986
    0.375986
    0.375986
    0.375986
    0.375986
    0.375986
    0.375986
    0.375986
    0.375986
    0.375986
    0.375986
    0.375986
    0.375986
    0.375986
    0.375986
    0.375986
    0.375986
    0.375986
    0.375986
    0.375986
    0.375986
    0.375986
    0.375986
    0.375986
    0.375986
    0.375986
    0.375986
    0.375986
    0.375986
    0.375986
    0.375986
    0.375986
    0.375986
    0.375986
    0.375986
    0.375986
    0.375986
    0.375986
    0.375986
    0.375986
    0.375986
    0.375986
    0.375986
    0.375986
    0.375986
    0.375986
    0.375986
    0.375986
    0.375986
    0.375986
    0.375986
    0.375986
    0.375986
    0.375986
    0.375986
    0.375986
    0.375986
    0.375986
    0.375986
    0.375986
    0.375986
    0.375986
    0.375986
    0.375986
    0.375986
    0.375986
    0.375986
    0.375986
    0.375986
    0.375986
    0.375986
    0.375986
    0.375986
    0.375986
    0.375986
    0.375986
    0.375986
    0.375986
    0.375986
    0.375986
    0.375986
    0.375986
    0.375986
    0.375986
    0.375986
    0.375986
    0.375986
    0.375986
    0.375986
    0.375986
    0.375986
    0.375986
    0.375986
    0.375986
    0.375986
    0.375986
    0.375986
    0.375986
    0.375986
    0.375986
    0.375986
    0.375986
    0.375986
    0.375986
    0.375986
    0.375986
    0.375986
    0.375986
    0.375986
    0.375986
    0.375986
    0.375986
    0.375986
    0.375986
    0.375986
    0.375986
    0.375986
    0.375986
    0.375986
    0.375986
    0.375986
    0.375986
    0.375986
    0.375986
    0.375986
    0.375986
    0.375986
    0.375986
    0.375986
    0.375986
    0.375986
    0.375986
    0.375986
    0.375986
    0.375986
    0.375986
    0.375986
    0.375986
    0.375986
    0.375986
    0.375986
    0.375986
    0.375986
    0.375986
    0.375986
    0.375986
    0.375986
    0.375986
    0.375986
    0.375986
    0.375986
    0.375986
    0.375986
    0.375986
    0.375986
    0.375986
    0.375986
    0.375986
    0.375986
    0.375986
    0.375986
    0.375986
    0.375986
    0.375986
    0.375986
    0.375986
    0.375986
    0.375986
    0.375986
    0.375986
    0.375986
    0.375986
    0.375986
    0.375986
    0.375986
    0.375986
    0.375986
    0.375986
    0.375986
    0.375986
    0.375986
    0.375986
    0.375986
    0.375986
    0.375986
    0.375986
    0.375986
    0.375986
    0.375986
    0.375986
    0.375986
    0.375986
    0.375986
    0.375986
    0.375986
    0.375986
    0.375986
    0.375986
    0.375986
    0.375986
    0.375986
    0.375986
    0.375986
    0.375986
    0.375986
    0.375986
    0.375986
    0.375986
    0.375986
    0.375986
    0.375986
    0.375986
    0.375986
    0.375986
    0.375986
    0.375986
    0.375986
    0.375986
    0.375986
    0.375986
    0.375986
    0.375986
    0.375986
    0.375986
    0.375986
    0.375986
    0.375986
    0.375986
    0.375986
    0.375986
    0.375986
    0.375986
    0.375986
    0.375986
    0.375986
    0.375986
    0.375986
    0.375986
    0.375986
    0.375986
    0.375986
    0.375986
    0.375986
    0.375986
    0.375986
    0.375986
    0.375986
    0.375986
    0.375986
    0.375986
    0.375986
    0.375986
    0.375986
    0.375986
    0.375986
    0.375986
    0.375986
    0.375986
    0.375986
    0.375986
    0.375986
    0.375986
    0.375986
    0.375986
    0.375986
    0.375986
    0.375986
    0.375986
    0.375986
    0.375986
    0.375986
    0.375986
    0.375986
    0.375986
    0.375986
    0.375986
    0.375986
    0.375986
    0.375986
    0.375986
    0.375986
    0.375986
    0.375986
    0.375986
    0.375986
    0.375986
    0.375986
    0.375986
    0.375986
    0.375986
    0.375986
    0.375986
    0.375986
    0.375986
    0.375986
    0.375986
    0.375986
    0.375986
    0.375986
    0.375986
    0.375986
    0.375986
    0.375986
    0.375986
    0.375986
    0.375986
    0.375986
    0.375986
    0.375986
    0.375986
    0.375986
    0.375986
    0.375986
    0.375986
)

// *********************** vim: set ft=cpp et sw=4 : *********************** //
