FoamFile
{
    version         2.0;
    format          ascii;
    class           vectorAverageField;
    object          U;
    note            "From experimental data, scaled for Ucoflow = 35 m/s";
}

// * * * * * * * * * * * * * * * * * * * * * * * * * * * * * * * * * * * * * //

// average
(0 0 0)

// data
(
    (5.68193 0 0)
    (8.87244 0 0)
    (12.0629 0 0)
    (15.2447 0 0)
    (16.2254 0 0)
    (17.2061 0 0)
    (18.1868 0 0)
    (19.1608 0 0)
    (19.3056 0 0)
    (19.4505 0 0)
    (19.5953 0 0)
    (19.7387 0 0)
    (19.7602 0 0)
    (19.7817 0 0)
    (19.8032 0 0)
    (19.8247 0 0)
    (19.8462 0 0)
    (19.8676 0 0)
    (19.8891 0 0)
    (19.9103 0 0)
    (19.9165 0 0)
    (19.9227 0 0)
    (19.9289 0 0)
    (19.9351 0 0)
    (19.9413 0 0)
    (19.9475 0 0)
    (19.9537 0 0)
    (19.9599 0 0)
    (19.966 0 0)
    (19.9722 0 0)
    (19.9784 0 0)
    (19.9846 0 0)
    (19.9908 0 0)
    (19.997 0 0)
    (20.0032 0 0)
    (20.0094 0 0)
    (20.0156 0 0)
    (20.0218 0 0)
    (20.028 0 0)
    (20.0339 0 0)
    (20.0339 0 0)
    (20.0339 0 0)
    (20.0339 0 0)
    (20.0339 0 0)
    (20.0339 0 0)
    (20.0339 0 0)
    (20.0339 0 0)
    (20.0339 0 0)
    (20.0339 0 0)
    (20.0339 0 0)
    (20.0339 0 0)
    (20.0339 0 0)
    (20.0339 0 0)
    (20.0339 0 0)
    (20.0339 0 0)
    (20.0339 0 0)
    (20.0339 0 0)
    (20.0339 0 0)
    (20.0339 0 0)
    (20.0339 0 0)
    (20.0339 0 0)
    (20.0339 0 0)
    (20.0339 0 0)
    (20.0339 0 0)
    (20.0339 0 0)
    (20.0339 0 0)
    (20.0339 0 0)
    (20.0339 0 0)
    (20.0339 0 0)
    (20.0339 0 0)
    (20.0339 0 0)
    (20.0339 0 0)
    (20.0339 0 0)
    (20.0339 0 0)
    (20.0339 0 0)
    (20.0339 0 0)
    (20.0339 0 0)
    (20.0339 0 0)
    (20.0339 0 0)
    (20.0339 0 0)
    (20.0339 0 0)
    (20.0339 0 0)
    (20.0339 0 0)
    (20.0339 0 0)
    (20.0339 0 0)
    (20.0339 0 0)
    (20.0339 0 0)
    (20.0339 0 0)
    (20.0339 0 0)
    (20.0339 0 0)
    (20.0339 0 0)
    (20.0339 0 0)
    (20.0339 0 0)
    (20.0339 0 0)
    (20.0339 0 0)
    (20.0339 0 0)
    (20.0339 0 0)
    (20.0339 0 0)
    (20.0339 0 0)
    (20.0339 0 0)
    (20.0339 0 0)
    (20.0339 0 0)
    (20.0339 0 0)
    (20.0339 0 0)
    (20.0339 0 0)
    (20.0339 0 0)
    (20.0339 0 0)
    (20.0339 0 0)
    (20.0339 0 0)
    (20.0339 0 0)
    (20.0339 0 0)
    (20.0339 0 0)
    (20.0339 0 0)
    (20.0339 0 0)
    (20.0339 0 0)
    (20.0339 0 0)
    (20.0339 0 0)
    (20.0339 0 0)
    (20.0339 0 0)
    (20.0339 0 0)
    (20.0339 0 0)
    (20.0339 0 0)
    (20.0339 0 0)
    (20.0339 0 0)
    (20.0339 0 0)
    (20.0339 0 0)
    (20.0339 0 0)
    (20.0339 0 0)
    (20.0339 0 0)
    (20.0339 0 0)
    (20.0339 0 0)
    (20.0339 0 0)
    (20.0339 0 0)
    (20.0339 0 0)
    (20.0339 0 0)
    (20.0339 0 0)
    (20.0339 0 0)
    (20.0339 0 0)
    (20.0339 0 0)
    (20.0339 0 0)
    (20.0339 0 0)
    (20.0339 0 0)
    (20.0339 0 0)
    (20.0339 0 0)
    (20.0339 0 0)
    (20.0339 0 0)
    (20.0339 0 0)
    (20.0339 0 0)
    (20.0339 0 0)
    (20.0339 0 0)
    (20.0339 0 0)
    (20.0339 0 0)
    (20.0339 0 0)
    (20.0339 0 0)
    (20.0339 0 0)
    (20.0339 0 0)
    (20.0339 0 0)
    (20.0339 0 0)
    (20.0339 0 0)
    (20.0339 0 0)
    (20.0339 0 0)
    (20.0339 0 0)
    (20.0339 0 0)
    (20.0339 0 0)
    (20.0339 0 0)
    (20.0339 0 0)
    (20.0339 0 0)
    (20.0339 0 0)
    (20.0339 0 0)
    (20.0339 0 0)
    (20.0339 0 0)
    (20.0339 0 0)
    (20.0339 0 0)
    (20.0339 0 0)
    (20.0339 0 0)
    (20.0339 0 0)
    (20.0339 0 0)
    (20.0339 0 0)
    (20.0339 0 0)
    (20.0339 0 0)
    (20.0339 0 0)
    (20.0339 0 0)
    (20.0339 0 0)
    (20.0339 0 0)
    (20.0339 0 0)
    (20.0339 0 0)
    (20.0339 0 0)
    (20.0339 0 0)
    (20.0339 0 0)
    (20.0339 0 0)
    (20.0339 0 0)
    (20.0339 0 0)
    (20.0339 0 0)
    (20.0339 0 0)
    (20.0339 0 0)
    (20.0339 0 0)
    (20.0339 0 0)
    (20.0339 0 0)
    (20.0339 0 0)
    (20.0339 0 0)
    (20.0339 0 0)
    (20.0339 0 0)
    (20.0339 0 0)
    (20.0339 0 0)
    (20.0339 0 0)
    (20.0339 0 0)
    (20.0339 0 0)
    (20.0339 0 0)
    (20.0339 0 0)
    (20.0339 0 0)
    (20.0339 0 0)
    (20.0339 0 0)
    (20.0339 0 0)
    (20.0339 0 0)
    (20.0339 0 0)
    (20.0339 0 0)
    (20.0339 0 0)
    (20.0339 0 0)
    (20.0339 0 0)
    (20.0339 0 0)
    (20.0339 0 0)
    (20.0339 0 0)
    (20.0339 0 0)
    (20.0339 0 0)
    (20.0339 0 0)
    (20.0339 0 0)
    (20.0339 0 0)
    (20.0339 0 0)
    (20.0339 0 0)
    (20.0339 0 0)
    (20.0339 0 0)
    (20.0339 0 0)
    (20.0339 0 0)
    (20.0339 0 0)
    (20.0339 0 0)
    (20.0339 0 0)
    (20.0339 0 0)
    (20.0339 0 0)
    (20.0339 0 0)
    (20.0339 0 0)
    (20.0339 0 0)
    (20.0339 0 0)
    (20.0339 0 0)
    (20.0339 0 0)
    (20.0339 0 0)
    (20.0339 0 0)
    (20.0339 0 0)
    (20.0339 0 0)
    (20.0339 0 0)
    (20.0339 0 0)
    (20.0339 0 0)
    (20.0339 0 0)
    (20.0339 0 0)
    (20.0339 0 0)
    (20.0339 0 0)
    (20.0339 0 0)
    (20.0339 0 0)
    (20.0339 0 0)
    (20.0339 0 0)
    (20.0339 0 0)
    (20.0339 0 0)
    (20.0339 0 0)
    (20.0339 0 0)
    (20.0339 0 0)
    (20.0339 0 0)
    (20.0339 0 0)
    (20.0339 0 0)
    (20.0339 0 0)
    (20.0339 0 0)
    (20.0339 0 0)
    (20.0339 0 0)
    (20.0339 0 0)
    (20.0339 0 0)
    (20.0339 0 0)
    (20.0339 0 0)
    (20.0339 0 0)
    (20.0339 0 0)
    (20.0339 0 0)
    (20.0339 0 0)
    (20.0339 0 0)
    (20.0339 0 0)
    (20.0339 0 0)
    (20.0339 0 0)
    (20.0339 0 0)
    (20.0339 0 0)
    (20.0339 0 0)
    (20.0339 0 0)
    (20.0339 0 0)
    (20.0339 0 0)
    (20.0339 0 0)
    (20.0339 0 0)
    (20.0339 0 0)
    (20.0339 0 0)
    (20.0339 0 0)
    (20.0339 0 0)
    (20.0339 0 0)
    (20.0339 0 0)
    (20.0339 0 0)
    (20.0339 0 0)
    (20.0339 0 0)
    (20.0339 0 0)
    (20.0339 0 0)
    (20.0339 0 0)
    (20.0339 0 0)
    (20.0339 0 0)
    (20.0339 0 0)
    (20.0339 0 0)
    (20.0339 0 0)
    (20.0339 0 0)
    (20.0339 0 0)
    (20.0339 0 0)
    (20.0339 0 0)
    (20.0339 0 0)
    (20.0339 0 0)
    (20.0339 0 0)
    (20.0339 0 0)
    (20.0339 0 0)
    (20.0339 0 0)
    (20.0339 0 0)
    (20.0339 0 0)
    (20.0339 0 0)
    (20.0339 0 0)
    (20.0339 0 0)
    (20.0339 0 0)
    (20.0339 0 0)
    (20.0339 0 0)
    (20.0339 0 0)
    (20.0339 0 0)
    (20.0339 0 0)
    (20.0339 0 0)
    (20.0339 0 0)
    (20.0339 0 0)
    (20.0339 0 0)
    (20.0339 0 0)
    (20.0339 0 0)
    (20.0339 0 0)
    (20.0339 0 0)
    (20.0339 0 0)
    (20.0339 0 0)
    (20.0339 0 0)
    (20.0339 0 0)
    (20.0339 0 0)
    (20.0339 0 0)
    (20.0339 0 0)
    (20.0339 0 0)
    (20.0339 0 0)
    (20.0339 0 0)
    (20.0339 0 0)
    (20.0339 0 0)
    (20.0339 0 0)
    (20.0339 0 0)
    (20.0339 0 0)
    (20.0339 0 0)
    (20.0339 0 0)
    (20.0339 0 0)
    (20.0339 0 0)
    (20.0339 0 0)
    (20.0339 0 0)
    (20.0339 0 0)
    (20.0339 0 0)
    (20.0339 0 0)
    (20.0339 0 0)
    (20.0339 0 0)
    (20.0339 0 0)
    (20.0339 0 0)
    (20.0339 0 0)
    (20.0339 0 0)
    (20.0339 0 0)
    (20.0339 0 0)
    (20.0339 0 0)
    (20.0339 0 0)
    (20.0339 0 0)
    (20.0339 0 0)
    (20.0339 0 0)
    (20.0339 0 0)
    (20.0339 0 0)
    (20.0339 0 0)
    (20.0339 0 0)
    (20.0339 0 0)
    (20.0339 0 0)
    (20.0339 0 0)
    (20.0339 0 0)
    (20.0339 0 0)
    (20.0339 0 0)
    (20.0339 0 0)
    (20.0339 0 0)
    (20.0339 0 0)
    (20.0339 0 0)
    (20.0339 0 0)
    (20.0339 0 0)
    (20.0339 0 0)
    (20.0339 0 0)
    (20.0339 0 0)
    (20.0339 0 0)
    (20.0339 0 0)
    (20.0339 0 0)
    (20.0339 0 0)
    (20.0339 0 0)
    (20.0339 0 0)
    (20.0339 0 0)
    (20.0339 0 0)
    (20.0339 0 0)
    (20.0339 0 0)
    (20.0339 0 0)
    (20.0339 0 0)
    (20.0339 0 0)
    (20.0339 0 0)
    (20.0339 0 0)
    (20.0339 0 0)
    (20.0339 0 0)
    (20.0339 0 0)
    (20.0339 0 0)
    (20.0339 0 0)
    (20.0339 0 0)
    (20.0339 0 0)
    (20.0339 0 0)
    (20.0339 0 0)
    (20.0339 0 0)
    (20.0339 0 0)
    (20.0339 0 0)
    (20.0339 0 0)
    (20.0339 0 0)
    (20.0339 0 0)
    (20.0339 0 0)
    (20.0339 0 0)
    (20.0339 0 0)
    (20.0339 0 0)
    (20.0339 0 0)
    (20.0339 0 0)
    (20.0339 0 0)
    (20.0339 0 0)
    (20.0339 0 0)
    (20.0339 0 0)
    (20.0339 0 0)
    (20.0339 0 0)
    (20.0339 0 0)
    (20.0339 0 0)
    (20.0339 0 0)
    (20.0339 0 0)
    (20.0339 0 0)
    (20.0339 0 0)
    (20.0339 0 0)
    (20.0339 0 0)
    (20.0339 0 0)
    (20.0339 0 0)
    (20.0339 0 0)
    (20.0339 0 0)
    (20.0339 0 0)
    (20.0339 0 0)
    (20.0339 0 0)
    (20.0339 0 0)
    (20.0339 0 0)
    (20.0339 0 0)
    (20.0339 0 0)
    (20.0339 0 0)
    (20.0339 0 0)
    (20.0339 0 0)
    (20.0339 0 0)
    (20.0339 0 0)
    (20.0339 0 0)
    (20.0339 0 0)
    (20.0339 0 0)
    (20.0339 0 0)
    (20.0339 0 0)
    (20.0339 0 0)
    (20.0339 0 0)
    (20.0339 0 0)
    (20.0339 0 0)
    (20.0339 0 0)
    (20.0339 0 0)
    (20.0339 0 0)
    (20.0339 0 0)
    (20.0339 0 0)
    (20.0339 0 0)
    (20.0339 0 0)
    (20.0339 0 0)
    (20.0339 0 0)
    (20.0339 0 0)
    (20.0339 0 0)
    (20.0339 0 0)
    (20.0339 0 0)
    (20.0339 0 0)
    (20.0339 0 0)
    (20.0339 0 0)
    (20.0339 0 0)
    (20.0339 0 0)
    (20.0339 0 0)
    (20.0339 0 0)
    (20.0339 0 0)
    (20.0339 0 0)
    (20.0339 0 0)
    (20.0339 0 0)
    (20.0339 0 0)
    (20.0339 0 0)
    (20.0339 0 0)
    (20.0339 0 0)
    (20.0339 0 0)
    (20.0339 0 0)
    (20.0339 0 0)
    (20.0339 0 0)
    (20.0339 0 0)
    (20.0339 0 0)
    (20.0339 0 0)
    (20.0339 0 0)
    (20.0339 0 0)
    (20.0339 0 0)
    (20.0339 0 0)
    (20.0339 0 0)
    (20.0339 0 0)
    (20.0339 0 0)
    (20.0339 0 0)
    (20.0339 0 0)
    (20.0339 0 0)
    (20.0339 0 0)
    (20.0339 0 0)
    (20.0339 0 0)
    (20.0339 0 0)
    (20.0339 0 0)
    (20.0339 0 0)
    (20.0339 0 0)
    (20.0339 0 0)
    (20.0339 0 0)
    (20.0339 0 0)
    (20.0339 0 0)
    (20.0339 0 0)
    (20.0339 0 0)
    (20.0339 0 0)
    (20.0339 0 0)
    (20.0339 0 0)
    (20.0339 0 0)
    (20.0339 0 0)
    (20.0339 0 0)
    (20.0339 0 0)
    (20.0339 0 0)
    (20.0339 0 0)
    (20.0339 0 0)
    (20.0339 0 0)
    (20.0339 0 0)
    (20.0339 0 0)
    (20.0339 0 0)
    (20.0339 0 0)
    (20.0339 0 0)
    (20.0339 0 0)
    (20.0339 0 0)
    (20.0339 0 0)
    (20.0339 0 0)
    (20.0339 0 0)
    (20.0339 0 0)
    (20.0339 0 0)
    (20.0339 0 0)
    (20.0339 0 0)
    (20.0339 0 0)
    (20.0339 0 0)
    (20.0339 0 0)
    (20.0339 0 0)
    (20.0339 0 0)
    (20.0339 0 0)
    (20.0339 0 0)
    (20.0339 0 0)
    (20.0339 0 0)
    (20.0339 0 0)
    (20.0339 0 0)
    (20.0339 0 0)
    (20.0339 0 0)
    (20.0339 0 0)
    (20.0339 0 0)
    (20.0339 0 0)
    (20.0339 0 0)
    (20.0339 0 0)
    (20.0339 0 0)
    (20.0339 0 0)
    (20.0339 0 0)
    (20.0339 0 0)
    (20.0339 0 0)
    (20.0339 0 0)
    (20.0339 0 0)
    (20.0339 0 0)
    (20.0339 0 0)
    (20.0339 0 0)
    (20.0339 0 0)
    (20.0339 0 0)
    (20.0339 0 0)
    (20.0339 0 0)
    (20.0339 0 0)
    (20.0339 0 0)
    (20.0339 0 0)
    (20.0339 0 0)
    (20.0339 0 0)
    (20.0339 0 0)
    (20.0339 0 0)
    (20.0339 0 0)
    (20.0339 0 0)
    (20.0339 0 0)
    (20.0339 0 0)
    (20.0339 0 0)
    (20.0339 0 0)
    (20.0339 0 0)
    (20.0339 0 0)
    (20.0339 0 0)
    (20.0339 0 0)
    (20.0339 0 0)
    (20.0339 0 0)
    (20.0339 0 0)
    (20.0339 0 0)
    (20.0339 0 0)
    (20.0339 0 0)
    (20.0339 0 0)
    (20.0339 0 0)
    (20.0339 0 0)
    (20.0339 0 0)
    (20.0339 0 0)
    (20.0339 0 0)
    (20.0339 0 0)
    (20.0339 0 0)
    (20.0339 0 0)
    (20.0339 0 0)
    (20.0339 0 0)
    (20.0339 0 0)
    (20.0339 0 0)
    (20.0339 0 0)
    (20.0339 0 0)
    (20.0339 0 0)
    (20.0339 0 0)
    (20.0339 0 0)
    (20.0339 0 0)
    (20.0339 0 0)
    (20.0339 0 0)
    (20.0339 0 0)
    (20.0339 0 0)
    (20.0339 0 0)
    (20.0339 0 0)
    (20.0339 0 0)
    (20.0339 0 0)
    (20.0339 0 0)
    (20.0339 0 0)
    (20.0339 0 0)
    (20.0339 0 0)
    (20.0339 0 0)
    (20.0339 0 0)
    (20.0339 0 0)
    (20.0339 0 0)
    (20.0339 0 0)
    (20.0339 0 0)
    (20.0339 0 0)
    (20.0339 0 0)
    (20.0339 0 0)
    (20.0339 0 0)
    (20.0339 0 0)
    (20.0339 0 0)
    (20.0339 0 0)
    (20.0339 0 0)
    (20.0339 0 0)
    (20.0339 0 0)
    (20.0339 0 0)
    (20.0339 0 0)
    (20.0339 0 0)
    (20.0339 0 0)
    (20.0339 0 0)
    (20.0339 0 0)
    (20.0339 0 0)
    (20.0339 0 0)
    (20.0339 0 0)
    (20.0339 0 0)
    (20.0339 0 0)
    (20.0339 0 0)
    (20.0339 0 0)
    (20.0339 0 0)
    (20.0339 0 0)
    (20.0339 0 0)
    (20.0339 0 0)
    (20.0339 0 0)
    (20.0339 0 0)
    (20.0339 0 0)
    (20.0339 0 0)
    (20.0339 0 0)
    (20.0339 0 0)
    (20.0339 0 0)
    (20.0339 0 0)
    (20.0339 0 0)
    (20.0339 0 0)
    (20.0339 0 0)
    (20.0339 0 0)
    (20.0339 0 0)
    (20.0339 0 0)
    (20.0339 0 0)
    (20.0339 0 0)
    (20.0339 0 0)
    (20.0339 0 0)
    (20.0339 0 0)
    (20.0339 0 0)
    (20.0339 0 0)
    (20.0339 0 0)
    (20.0339 0 0)
    (20.0339 0 0)
    (20.0339 0 0)
    (20.0339 0 0)
    (20.0339 0 0)
    (20.0339 0 0)
    (20.0339 0 0)
    (20.0339 0 0)
    (20.0339 0 0)
    (20.0339 0 0)
    (20.0339 0 0)
    (20.0339 0 0)
    (20.0339 0 0)
    (20.0339 0 0)
    (20.0339 0 0)
    (20.0339 0 0)
    (20.0339 0 0)
    (20.0339 0 0)
    (20.0339 0 0)
    (20.0339 0 0)
    (20.0339 0 0)
    (20.0339 0 0)
    (20.0339 0 0)
    (20.0339 0 0)
    (20.0339 0 0)
    (20.0339 0 0)
    (20.0339 0 0)
    (20.0339 0 0)
    (20.0339 0 0)
    (20.0339 0 0)
    (20.0339 0 0)
    (20.0339 0 0)
    (20.0339 0 0)
    (20.0339 0 0)
    (20.0339 0 0)
    (20.0339 0 0)
    (20.0339 0 0)
    (20.0339 0 0)
    (20.0339 0 0)
    (20.0339 0 0)
    (20.0339 0 0)
    (20.0339 0 0)
    (20.0339 0 0)
    (20.0339 0 0)
    (20.0339 0 0)
    (20.0339 0 0)
    (20.0339 0 0)
    (20.0339 0 0)
    (20.0339 0 0)
    (20.0339 0 0)
    (20.0339 0 0)
    (20.0339 0 0)
    (20.0339 0 0)
    (20.0339 0 0)
    (20.0339 0 0)
    (20.0339 0 0)
    (20.0339 0 0)
    (20.0339 0 0)
    (20.0339 0 0)
    (20.0339 0 0)
    (20.0339 0 0)
    (20.0339 0 0)
    (20.0339 0 0)
    (20.0339 0 0)
    (20.0339 0 0)
    (20.0339 0 0)
    (20.0339 0 0)
    (20.0339 0 0)
    (20.0339 0 0)
    (20.0339 0 0)
    (20.0339 0 0)
    (20.0339 0 0)
    (20.0339 0 0)
    (20.0339 0 0)
    (20.0339 0 0)
    (20.0339 0 0)
    (20.0339 0 0)
    (20.0339 0 0)
    (20.0339 0 0)
    (20.0339 0 0)
    (20.0339 0 0)
    (20.0339 0 0)
    (20.0339 0 0)
    (20.0339 0 0)
    (20.0339 0 0)
    (20.0339 0 0)
    (20.0339 0 0)
    (20.0339 0 0)
    (20.0339 0 0)
    (20.0339 0 0)
    (20.0339 0 0)
    (20.0339 0 0)
    (20.0339 0 0)
    (20.0339 0 0)
    (20.0339 0 0)
    (20.0339 0 0)
    (20.0339 0 0)
    (20.0339 0 0)
    (20.0339 0 0)
    (20.0339 0 0)
    (20.0339 0 0)
    (20.0339 0 0)
    (20.0339 0 0)
    (20.0339 0 0)
    (20.0339 0 0)
    (20.0339 0 0)
    (20.0339 0 0)
    (20.0339 0 0)
    (20.0339 0 0)
    (20.0339 0 0)
    (20.0339 0 0)
    (20.0339 0 0)
    (20.0339 0 0)
    (20.0339 0 0)
    (20.0339 0 0)
    (20.0339 0 0)
    (20.0339 0 0)
    (20.0339 0 0)
    (20.0339 0 0)
    (20.0339 0 0)
    (20.0339 0 0)
    (20.0339 0 0)
    (20.0339 0 0)
    (20.0339 0 0)
    (20.0339 0 0)
    (20.0339 0 0)
    (20.0339 0 0)
    (20.0339 0 0)
    (20.0339 0 0)
    (20.0339 0 0)
    (20.0339 0 0)
    (20.0339 0 0)
    (20.0339 0 0)
    (20.0339 0 0)
    (20.0339 0 0)
    (20.0339 0 0)
    (20.0339 0 0)
    (20.0339 0 0)
    (20.0339 0 0)
    (20.0339 0 0)
    (20.0339 0 0)
    (20.0339 0 0)
    (20.0339 0 0)
    (20.0339 0 0)
    (20.0339 0 0)
    (20.0339 0 0)
    (20.0339 0 0)
    (20.0339 0 0)
    (20.0339 0 0)
    (20.0339 0 0)
    (20.0339 0 0)
    (20.0339 0 0)
    (20.0339 0 0)
    (20.0339 0 0)
    (20.0339 0 0)
    (20.0339 0 0)
    (20.0339 0 0)
    (20.0339 0 0)
    (20.0339 0 0)
    (20.0339 0 0)
    (20.0339 0 0)
    (20.0339 0 0)
    (20.0339 0 0)
    (20.0339 0 0)
    (20.0339 0 0)
    (20.0339 0 0)
    (20.0339 0 0)
    (20.0339 0 0)
    (20.0339 0 0)
    (20.0339 0 0)
    (20.0339 0 0)
    (20.0339 0 0)
    (20.0339 0 0)
    (20.0339 0 0)
    (20.0339 0 0)
    (20.0339 0 0)
    (20.0339 0 0)
    (20.0339 0 0)
    (20.0339 0 0)
    (20.0339 0 0)
    (20.0339 0 0)
    (20.0339 0 0)
    (20.0339 0 0)
    (20.0339 0 0)
    (20.0339 0 0)
    (20.0339 0 0)
    (20.0339 0 0)
    (20.0339 0 0)
    (20.0339 0 0)
    (20.0339 0 0)
    (20.0339 0 0)
    (20.0339 0 0)
    (20.0339 0 0)
    (20.0339 0 0)
    (20.0339 0 0)
    (20.0339 0 0)
    (20.0339 0 0)
    (20.0339 0 0)
    (20.0339 0 0)
    (20.0339 0 0)
    (20.0339 0 0)
    (20.0339 0 0)
    (20.0339 0 0)
    (20.0339 0 0)
    (20.0339 0 0)
    (20.0339 0 0)
    (20.0339 0 0)
    (20.0339 0 0)
    (20.0339 0 0)
    (20.0339 0 0)
    (20.0339 0 0)
    (20.0339 0 0)
    (20.0339 0 0)
    (20.0339 0 0)
    (20.0339 0 0)
    (20.0339 0 0)
    (20.0339 0 0)
    (20.0339 0 0)
    (20.0339 0 0)
    (20.0339 0 0)
    (20.0339 0 0)
    (20.0339 0 0)
    (20.0339 0 0)
    (20.0339 0 0)
    (20.0339 0 0)
    (20.0339 0 0)
    (20.0339 0 0)
    (20.0339 0 0)
    (20.0339 0 0)
    (20.0339 0 0)
    (20.0339 0 0)
    (20.0339 0 0)
    (20.0339 0 0)
    (20.0339 0 0)
    (20.0339 0 0)
    (20.0339 0 0)
    (20.0339 0 0)
    (20.0339 0 0)
    (20.0339 0 0)
    (20.0339 0 0)
    (20.0339 0 0)
    (20.0339 0 0)
    (20.0339 0 0)
    (20.0339 0 0)
    (20.0339 0 0)
    (20.0339 0 0)
    (20.0339 0 0)
    (20.0339 0 0)
    (20.0339 0 0)
    (20.0339 0 0)
    (20.0339 0 0)
    (20.0339 0 0)
    (20.0339 0 0)
    (20.0339 0 0)
    (20.0339 0 0)
    (20.0339 0 0)
    (20.0339 0 0)
    (20.0339 0 0)
    (20.0339 0 0)
    (20.0339 0 0)
    (20.0339 0 0)
    (20.0339 0 0)
    (20.0339 0 0)
    (20.0339 0 0)
    (20.0339 0 0)
    (20.0339 0 0)
    (20.0339 0 0)
    (20.0339 0 0)
    (20.0339 0 0)
    (20.0339 0 0)
    (20.0339 0 0)
    (20.0339 0 0)
    (20.0339 0 0)
    (20.0339 0 0)
    (20.0339 0 0)
    (20.0339 0 0)
    (20.0339 0 0)
    (20.0339 0 0)
    (20.0339 0 0)
    (20.0339 0 0)
    (20.0339 0 0)
    (20.0339 0 0)
    (20.0339 0 0)
    (20.0339 0 0)
    (20.0339 0 0)
    (20.0339 0 0)
    (20.0339 0 0)
    (20.0339 0 0)
    (20.0339 0 0)
    (20.0339 0 0)
    (20.0339 0 0)
    (20.0339 0 0)
    (20.0339 0 0)
    (20.0339 0 0)
    (20.0339 0 0)
    (20.0339 0 0)
    (20.0339 0 0)
    (20.0339 0 0)
    (20.0339 0 0)
    (20.0339 0 0)
    (20.0339 0 0)
    (20.0339 0 0)
    (20.0339 0 0)
    (20.0339 0 0)
    (20.0339 0 0)
    (20.0339 0 0)
    (20.0339 0 0)
    (5.68193 0 0)
    (8.87244 0 0)
    (12.0629 0 0)
    (15.2447 0 0)
    (16.2254 0 0)
    (17.2061 0 0)
    (18.1868 0 0)
    (19.1608 0 0)
    (19.3056 0 0)
    (19.4505 0 0)
    (19.5953 0 0)
    (19.7387 0 0)
    (19.7602 0 0)
    (19.7817 0 0)
    (19.8032 0 0)
    (19.8247 0 0)
    (19.8462 0 0)
    (19.8676 0 0)
    (19.8891 0 0)
    (19.9103 0 0)
    (19.9165 0 0)
    (19.9227 0 0)
    (19.9289 0 0)
    (19.9351 0 0)
    (19.9413 0 0)
    (19.9475 0 0)
    (19.9537 0 0)
    (19.9599 0 0)
    (19.966 0 0)
    (19.9722 0 0)
    (19.9784 0 0)
    (19.9846 0 0)
    (19.9908 0 0)
    (19.997 0 0)
    (20.0032 0 0)
    (20.0094 0 0)
    (20.0156 0 0)
    (20.0218 0 0)
    (20.028 0 0)
    (20.0339 0 0)
    (20.0339 0 0)
    (20.0339 0 0)
    (20.0339 0 0)
    (20.0339 0 0)
    (20.0339 0 0)
    (20.0339 0 0)
    (20.0339 0 0)
    (20.0339 0 0)
    (20.0339 0 0)
    (20.0339 0 0)
    (20.0339 0 0)
    (20.0339 0 0)
    (20.0339 0 0)
    (20.0339 0 0)
    (20.0339 0 0)
    (20.0339 0 0)
    (20.0339 0 0)
    (20.0339 0 0)
    (20.0339 0 0)
    (20.0339 0 0)
    (20.0339 0 0)
    (20.0339 0 0)
    (20.0339 0 0)
    (20.0339 0 0)
    (20.0339 0 0)
    (20.0339 0 0)
    (20.0339 0 0)
    (20.0339 0 0)
    (20.0339 0 0)
    (20.0339 0 0)
    (20.0339 0 0)
    (20.0339 0 0)
    (20.0339 0 0)
    (20.0339 0 0)
    (20.0339 0 0)
    (20.0339 0 0)
    (20.0339 0 0)
    (20.0339 0 0)
    (20.0339 0 0)
    (20.0339 0 0)
    (20.0339 0 0)
    (20.0339 0 0)
    (20.0339 0 0)
    (20.0339 0 0)
    (20.0339 0 0)
    (20.0339 0 0)
    (20.0339 0 0)
    (20.0339 0 0)
    (20.0339 0 0)
    (20.0339 0 0)
    (20.0339 0 0)
    (20.0339 0 0)
    (20.0339 0 0)
    (20.0339 0 0)
    (20.0339 0 0)
    (20.0339 0 0)
    (20.0339 0 0)
    (20.0339 0 0)
    (20.0339 0 0)
    (20.0339 0 0)
    (20.0339 0 0)
    (20.0339 0 0)
    (20.0339 0 0)
    (20.0339 0 0)
    (20.0339 0 0)
    (20.0339 0 0)
    (20.0339 0 0)
    (20.0339 0 0)
    (20.0339 0 0)
    (20.0339 0 0)
    (20.0339 0 0)
    (20.0339 0 0)
    (20.0339 0 0)
    (20.0339 0 0)
    (20.0339 0 0)
    (20.0339 0 0)
    (20.0339 0 0)
    (20.0339 0 0)
    (20.0339 0 0)
    (20.0339 0 0)
    (20.0339 0 0)
    (20.0339 0 0)
    (20.0339 0 0)
    (20.0339 0 0)
    (20.0339 0 0)
    (20.0339 0 0)
    (20.0339 0 0)
    (20.0339 0 0)
    (20.0339 0 0)
    (20.0339 0 0)
    (20.0339 0 0)
    (20.0339 0 0)
    (20.0339 0 0)
    (20.0339 0 0)
    (20.0339 0 0)
    (20.0339 0 0)
    (20.0339 0 0)
    (20.0339 0 0)
    (20.0339 0 0)
    (20.0339 0 0)
    (20.0339 0 0)
    (20.0339 0 0)
    (20.0339 0 0)
    (20.0339 0 0)
    (20.0339 0 0)
    (20.0339 0 0)
    (20.0339 0 0)
    (20.0339 0 0)
    (20.0339 0 0)
    (20.0339 0 0)
    (20.0339 0 0)
    (20.0339 0 0)
    (20.0339 0 0)
    (20.0339 0 0)
    (20.0339 0 0)
    (20.0339 0 0)
    (20.0339 0 0)
    (20.0339 0 0)
    (20.0339 0 0)
    (20.0339 0 0)
    (20.0339 0 0)
    (20.0339 0 0)
    (20.0339 0 0)
    (20.0339 0 0)
    (20.0339 0 0)
    (20.0339 0 0)
    (20.0339 0 0)
    (20.0339 0 0)
    (20.0339 0 0)
    (20.0339 0 0)
    (20.0339 0 0)
    (20.0339 0 0)
    (20.0339 0 0)
    (20.0339 0 0)
    (20.0339 0 0)
    (20.0339 0 0)
    (20.0339 0 0)
    (20.0339 0 0)
    (20.0339 0 0)
    (20.0339 0 0)
    (20.0339 0 0)
    (20.0339 0 0)
    (20.0339 0 0)
    (20.0339 0 0)
    (20.0339 0 0)
    (20.0339 0 0)
    (20.0339 0 0)
    (20.0339 0 0)
    (20.0339 0 0)
    (20.0339 0 0)
    (20.0339 0 0)
    (20.0339 0 0)
    (20.0339 0 0)
    (20.0339 0 0)
    (20.0339 0 0)
    (20.0339 0 0)
    (20.0339 0 0)
    (20.0339 0 0)
    (20.0339 0 0)
    (20.0339 0 0)
    (20.0339 0 0)
    (20.0339 0 0)
    (20.0339 0 0)
    (20.0339 0 0)
    (20.0339 0 0)
    (20.0339 0 0)
    (20.0339 0 0)
    (20.0339 0 0)
    (20.0339 0 0)
    (20.0339 0 0)
    (20.0339 0 0)
    (20.0339 0 0)
    (20.0339 0 0)
    (20.0339 0 0)
    (20.0339 0 0)
    (20.0339 0 0)
    (20.0339 0 0)
    (20.0339 0 0)
    (20.0339 0 0)
    (20.0339 0 0)
    (20.0339 0 0)
    (20.0339 0 0)
    (20.0339 0 0)
    (20.0339 0 0)
    (20.0339 0 0)
    (20.0339 0 0)
    (20.0339 0 0)
    (20.0339 0 0)
    (20.0339 0 0)
    (20.0339 0 0)
    (20.0339 0 0)
    (20.0339 0 0)
    (20.0339 0 0)
    (20.0339 0 0)
    (20.0339 0 0)
    (20.0339 0 0)
    (20.0339 0 0)
    (20.0339 0 0)
    (20.0339 0 0)
    (20.0339 0 0)
    (20.0339 0 0)
    (20.0339 0 0)
    (20.0339 0 0)
    (20.0339 0 0)
    (20.0339 0 0)
    (20.0339 0 0)
    (20.0339 0 0)
    (20.0339 0 0)
    (20.0339 0 0)
    (20.0339 0 0)
    (20.0339 0 0)
    (20.0339 0 0)
    (20.0339 0 0)
    (20.0339 0 0)
    (20.0339 0 0)
    (20.0339 0 0)
    (20.0339 0 0)
    (20.0339 0 0)
    (20.0339 0 0)
    (20.0339 0 0)
    (20.0339 0 0)
    (20.0339 0 0)
    (20.0339 0 0)
    (20.0339 0 0)
    (20.0339 0 0)
    (20.0339 0 0)
    (20.0339 0 0)
    (20.0339 0 0)
    (20.0339 0 0)
    (20.0339 0 0)
    (20.0339 0 0)
    (20.0339 0 0)
    (20.0339 0 0)
    (20.0339 0 0)
    (20.0339 0 0)
    (20.0339 0 0)
    (20.0339 0 0)
    (20.0339 0 0)
    (20.0339 0 0)
    (20.0339 0 0)
    (20.0339 0 0)
    (20.0339 0 0)
    (20.0339 0 0)
    (20.0339 0 0)
    (20.0339 0 0)
    (20.0339 0 0)
    (20.0339 0 0)
    (20.0339 0 0)
    (20.0339 0 0)
    (20.0339 0 0)
    (20.0339 0 0)
    (20.0339 0 0)
    (20.0339 0 0)
    (20.0339 0 0)
    (20.0339 0 0)
    (20.0339 0 0)
    (20.0339 0 0)
    (20.0339 0 0)
    (20.0339 0 0)
    (20.0339 0 0)
    (20.0339 0 0)
    (20.0339 0 0)
    (20.0339 0 0)
    (20.0339 0 0)
    (20.0339 0 0)
    (20.0339 0 0)
    (20.0339 0 0)
    (20.0339 0 0)
    (20.0339 0 0)
    (20.0339 0 0)
    (20.0339 0 0)
    (20.0339 0 0)
    (20.0339 0 0)
    (20.0339 0 0)
    (20.0339 0 0)
    (20.0339 0 0)
    (20.0339 0 0)
    (20.0339 0 0)
    (20.0339 0 0)
    (20.0339 0 0)
    (20.0339 0 0)
    (20.0339 0 0)
    (20.0339 0 0)
    (20.0339 0 0)
    (20.0339 0 0)
    (20.0339 0 0)
    (20.0339 0 0)
    (20.0339 0 0)
    (20.0339 0 0)
    (20.0339 0 0)
    (20.0339 0 0)
    (20.0339 0 0)
    (20.0339 0 0)
    (20.0339 0 0)
    (20.0339 0 0)
    (20.0339 0 0)
    (20.0339 0 0)
    (20.0339 0 0)
    (20.0339 0 0)
    (20.0339 0 0)
    (20.0339 0 0)
    (20.0339 0 0)
    (20.0339 0 0)
    (20.0339 0 0)
    (20.0339 0 0)
    (20.0339 0 0)
    (20.0339 0 0)
    (20.0339 0 0)
    (20.0339 0 0)
    (20.0339 0 0)
    (20.0339 0 0)
    (20.0339 0 0)
    (20.0339 0 0)
    (20.0339 0 0)
    (20.0339 0 0)
    (20.0339 0 0)
    (20.0339 0 0)
    (20.0339 0 0)
    (20.0339 0 0)
    (20.0339 0 0)
    (20.0339 0 0)
    (20.0339 0 0)
    (20.0339 0 0)
    (20.0339 0 0)
    (20.0339 0 0)
    (20.0339 0 0)
    (20.0339 0 0)
    (20.0339 0 0)
    (20.0339 0 0)
    (20.0339 0 0)
    (20.0339 0 0)
    (20.0339 0 0)
    (20.0339 0 0)
    (20.0339 0 0)
    (20.0339 0 0)
    (20.0339 0 0)
    (20.0339 0 0)
    (20.0339 0 0)
    (20.0339 0 0)
    (20.0339 0 0)
    (20.0339 0 0)
    (20.0339 0 0)
    (20.0339 0 0)
    (20.0339 0 0)
    (20.0339 0 0)
    (20.0339 0 0)
    (20.0339 0 0)
    (20.0339 0 0)
    (20.0339 0 0)
    (20.0339 0 0)
    (20.0339 0 0)
    (20.0339 0 0)
    (20.0339 0 0)
    (20.0339 0 0)
    (20.0339 0 0)
    (20.0339 0 0)
    (20.0339 0 0)
    (20.0339 0 0)
    (20.0339 0 0)
    (20.0339 0 0)
    (20.0339 0 0)
    (20.0339 0 0)
    (20.0339 0 0)
    (20.0339 0 0)
    (20.0339 0 0)
    (20.0339 0 0)
    (20.0339 0 0)
    (20.0339 0 0)
    (20.0339 0 0)
    (20.0339 0 0)
    (20.0339 0 0)
    (20.0339 0 0)
    (20.0339 0 0)
    (20.0339 0 0)
    (20.0339 0 0)
    (20.0339 0 0)
    (20.0339 0 0)
    (20.0339 0 0)
    (20.0339 0 0)
    (20.0339 0 0)
    (20.0339 0 0)
    (20.0339 0 0)
    (20.0339 0 0)
    (20.0339 0 0)
    (20.0339 0 0)
    (20.0339 0 0)
    (20.0339 0 0)
    (20.0339 0 0)
    (20.0339 0 0)
    (20.0339 0 0)
    (20.0339 0 0)
    (20.0339 0 0)
    (20.0339 0 0)
    (20.0339 0 0)
    (20.0339 0 0)
    (20.0339 0 0)
    (20.0339 0 0)
    (20.0339 0 0)
    (20.0339 0 0)
    (20.0339 0 0)
    (20.0339 0 0)
    (20.0339 0 0)
    (20.0339 0 0)
    (20.0339 0 0)
    (20.0339 0 0)
    (20.0339 0 0)
    (20.0339 0 0)
    (20.0339 0 0)
    (20.0339 0 0)
    (20.0339 0 0)
    (20.0339 0 0)
    (20.0339 0 0)
    (20.0339 0 0)
    (20.0339 0 0)
    (20.0339 0 0)
    (20.0339 0 0)
    (20.0339 0 0)
    (20.0339 0 0)
    (20.0339 0 0)
    (20.0339 0 0)
    (20.0339 0 0)
    (20.0339 0 0)
    (20.0339 0 0)
    (20.0339 0 0)
    (20.0339 0 0)
    (20.0339 0 0)
    (20.0339 0 0)
    (20.0339 0 0)
    (20.0339 0 0)
    (20.0339 0 0)
    (20.0339 0 0)
    (20.0339 0 0)
    (20.0339 0 0)
    (20.0339 0 0)
    (20.0339 0 0)
    (20.0339 0 0)
    (20.0339 0 0)
    (20.0339 0 0)
    (20.0339 0 0)
    (20.0339 0 0)
    (20.0339 0 0)
    (20.0339 0 0)
    (20.0339 0 0)
    (20.0339 0 0)
    (20.0339 0 0)
    (20.0339 0 0)
    (20.0339 0 0)
    (20.0339 0 0)
    (20.0339 0 0)
    (20.0339 0 0)
    (20.0339 0 0)
    (20.0339 0 0)
    (20.0339 0 0)
    (20.0339 0 0)
    (20.0339 0 0)
    (20.0339 0 0)
    (20.0339 0 0)
    (20.0339 0 0)
    (20.0339 0 0)
    (20.0339 0 0)
    (20.0339 0 0)
    (20.0339 0 0)
    (20.0339 0 0)
    (20.0339 0 0)
    (20.0339 0 0)
    (20.0339 0 0)
    (20.0339 0 0)
    (20.0339 0 0)
    (20.0339 0 0)
    (20.0339 0 0)
    (20.0339 0 0)
    (20.0339 0 0)
    (20.0339 0 0)
    (20.0339 0 0)
    (20.0339 0 0)
    (20.0339 0 0)
    (20.0339 0 0)
    (20.0339 0 0)
    (20.0339 0 0)
    (20.0339 0 0)
    (20.0339 0 0)
    (20.0339 0 0)
    (20.0339 0 0)
    (20.0339 0 0)
    (20.0339 0 0)
    (20.0339 0 0)
    (20.0339 0 0)
    (20.0339 0 0)
    (20.0339 0 0)
    (20.0339 0 0)
    (20.0339 0 0)
    (20.0339 0 0)
    (20.0339 0 0)
    (20.0339 0 0)
    (20.0339 0 0)
    (20.0339 0 0)
    (20.0339 0 0)
    (20.0339 0 0)
    (20.0339 0 0)
    (20.0339 0 0)
    (20.0339 0 0)
    (20.0339 0 0)
    (20.0339 0 0)
    (20.0339 0 0)
    (20.0339 0 0)
    (20.0339 0 0)
    (20.0339 0 0)
    (20.0339 0 0)
    (20.0339 0 0)
    (20.0339 0 0)
    (20.0339 0 0)
    (20.0339 0 0)
    (20.0339 0 0)
    (20.0339 0 0)
    (20.0339 0 0)
    (20.0339 0 0)
    (20.0339 0 0)
    (20.0339 0 0)
    (20.0339 0 0)
    (20.0339 0 0)
    (20.0339 0 0)
    (20.0339 0 0)
    (20.0339 0 0)
    (20.0339 0 0)
    (20.0339 0 0)
    (20.0339 0 0)
    (20.0339 0 0)
    (20.0339 0 0)
    (20.0339 0 0)
    (20.0339 0 0)
    (20.0339 0 0)
    (20.0339 0 0)
    (20.0339 0 0)
    (20.0339 0 0)
    (20.0339 0 0)
    (20.0339 0 0)
    (20.0339 0 0)
    (20.0339 0 0)
    (20.0339 0 0)
    (20.0339 0 0)
    (20.0339 0 0)
    (20.0339 0 0)
    (20.0339 0 0)
    (20.0339 0 0)
    (20.0339 0 0)
    (20.0339 0 0)
    (20.0339 0 0)
    (20.0339 0 0)
    (20.0339 0 0)
    (20.0339 0 0)
    (20.0339 0 0)
    (20.0339 0 0)
    (20.0339 0 0)
    (20.0339 0 0)
    (20.0339 0 0)
    (20.0339 0 0)
    (20.0339 0 0)
    (20.0339 0 0)
    (20.0339 0 0)
    (20.0339 0 0)
    (20.0339 0 0)
    (20.0339 0 0)
    (20.0339 0 0)
    (20.0339 0 0)
    (20.0339 0 0)
    (20.0339 0 0)
    (20.0339 0 0)
    (20.0339 0 0)
    (20.0339 0 0)
    (20.0339 0 0)
    (20.0339 0 0)
    (20.0339 0 0)
    (20.0339 0 0)
    (20.0339 0 0)
    (20.0339 0 0)
    (20.0339 0 0)
    (20.0339 0 0)
    (20.0339 0 0)
    (20.0339 0 0)
    (20.0339 0 0)
    (20.0339 0 0)
    (20.0339 0 0)
    (20.0339 0 0)
    (20.0339 0 0)
    (20.0339 0 0)
    (20.0339 0 0)
    (20.0339 0 0)
    (20.0339 0 0)
    (20.0339 0 0)
    (20.0339 0 0)
    (20.0339 0 0)
    (20.0339 0 0)
    (20.0339 0 0)
    (20.0339 0 0)
    (20.0339 0 0)
    (20.0339 0 0)
    (20.0339 0 0)
    (20.0339 0 0)
    (20.0339 0 0)
    (20.0339 0 0)
    (20.0339 0 0)
    (20.0339 0 0)
    (20.0339 0 0)
    (20.0339 0 0)
    (20.0339 0 0)
    (20.0339 0 0)
    (20.0339 0 0)
    (20.0339 0 0)
    (20.0339 0 0)
    (20.0339 0 0)