FoamFile
{
    version     2.0;
    format      ascii;
    class       scalarAverageField;
    object      epsilon;
    note        "Calculated assuming turbulence in equilibrium: epsilon = sqrt(Cmu)*k*|dU/dy|";
}

// * * * * * * * * * * * * * * * * * * * * * * * * * * * * * * * * * * * * * //

// Average
0

(
    // min z
    6.0578813e-03
    2.4638859e+02
    9.0593376e+02
    1.8665026e+03
    2.6972535e+03
    2.6408613e+03
    2.6637710e+03
    2.7364438e+03
    2.8326429e+03
    2.6299218e+03
    2.2203396e+03
    1.8549366e+03
    1.5307806e+03
    1.2450361e+03
    1.0422635e+03
    8.6059389e+02
    6.9140102e+02
    5.3524088e+02
    3.9178729e+02
    2.6052951e+02
    1.4706232e+02
    5.0719182e+01
    2.8933072e+01
    8.9734712e+01
    1.2780330e+02
    1.4649926e+02
    1.5312135e+02
    1.5389513e+02
    1.5959957e+02
    1.6326842e+02
    1.6161335e+02
    1.5398791e+02
    1.3869471e+02
    1.0851989e+02
    7.5063454e+01
    3.8705238e+01
    2.5813616e-01
    4.2541721e+01
    9.1926192e+01
    1.2713011e+02
    1.2490434e+02
    8.2625671e+01
    2.4560954e+00
    1.4077558e+02
    3.4114671e+02
    9.8748493e+02
    2.5413145e+03
    4.6815116e+03
    7.4125659e+03
    1.0651323e+04
    1.5116175e-02

    // max z
    6.0578813e-03
    2.4638859e+02
    9.0593376e+02
    1.8665026e+03
    2.6972535e+03
    2.6408613e+03
    2.6637710e+03
    2.7364438e+03
    2.8326429e+03
    2.6299218e+03
    2.2203396e+03
    1.8549366e+03
    1.5307806e+03
    1.2450361e+03
    1.0422635e+03
    8.6059389e+02
    6.9140102e+02
    5.3524088e+02
    3.9178729e+02
    2.6052951e+02
    1.4706232e+02
    5.0719182e+01
    2.8933072e+01
    8.9734712e+01
    1.2780330e+02
    1.4649926e+02
    1.5312135e+02
    1.5389513e+02
    1.5959957e+02
    1.6326842e+02
    1.6161335e+02
    1.5398791e+02
    1.3869471e+02
    1.0851989e+02
    7.5063454e+01
    3.8705238e+01
    2.5813616e-01
    4.2541721e+01
    9.1926192e+01
    1.2713011e+02
    1.2490434e+02
    8.2625671e+01
    2.4560954e+00
    1.4077558e+02
    3.4114671e+02
    9.8748493e+02
    2.5413145e+03
    4.6815116e+03
    7.4125659e+03
    1.0651323e+04
    1.5116175e-02
)

// *********************** vim: set ft=cpp et sw=4 : *********************** //
