FoamFile
{
    version     2.0;
    format      ascii;
    class       scalarAverageField;
    object      k;
}

// * * * * * * * * * * * * * * * * * * * * * * * * * * * * * * * * * * * * * //

// Average
0

(
    // min z
    1.0000000e-06
    4.4092085e-02
    1.7636834e-01
    3.9682876e-01
    6.2889416e-01
    6.7842944e-01
    7.5788827e-01
    8.6727065e-01
    1.0065766e+00
    1.0555893e+00
    1.0151954e+00
    9.7567813e-01
    9.3703752e-01
    8.9927357e-01
    9.0338282e-01
    9.1419511e-01
    9.2508447e-01
    9.3605093e-01
    9.4494642e-01
    9.4459883e-01
    9.4636635e-01
    9.5024901e-01
    9.5624678e-01
    9.3965243e-01
    8.9782316e-01
    8.5768641e-01
    8.1924220e-01
    7.8249050e-01
    7.9756042e-01
    8.2787140e-01
    8.5969788e-01
    8.9303984e-01
    9.2129867e-01
    8.8715943e-01
    8.5521027e-01
    8.2545119e-01
    7.9788220e-01
    7.8973952e-01
    8.0818677e-01
    8.2688239e-01
    8.4582636e-01
    8.6501871e-01
    9.0598178e-01
    9.5753726e-01
    1.0110948e+00
    1.0666544e+00
    1.1224620e+00
    1.0756577e+00
    1.0309103e+00
    9.8821991e-01
    1.0000000e-06

    // max z
    1.0000000e-06
    4.4092085e-02
    1.7636834e-01
    3.9682876e-01
    6.2889416e-01
    6.7842944e-01
    7.5788827e-01
    8.6727065e-01
    1.0065766e+00
    1.0555893e+00
    1.0151954e+00
    9.7567813e-01
    9.3703752e-01
    8.9927357e-01
    9.0338282e-01
    9.1419511e-01
    9.2508447e-01
    9.3605093e-01
    9.4494642e-01
    9.4459883e-01
    9.4636635e-01
    9.5024901e-01
    9.5624678e-01
    9.3965243e-01
    8.9782316e-01
    8.5768641e-01
    8.1924220e-01
    7.8249050e-01
    7.9756042e-01
    8.2787140e-01
    8.5969788e-01
    8.9303984e-01
    9.2129867e-01
    8.8715943e-01
    8.5521027e-01
    8.2545119e-01
    7.9788220e-01
    7.8973952e-01
    8.0818677e-01
    8.2688239e-01
    8.4582636e-01
    8.6501871e-01
    9.0598178e-01
    9.5753726e-01
    1.0110948e+00
    1.0666544e+00
    1.1224620e+00
    1.0756577e+00
    1.0309103e+00
    9.8821991e-01
    1.0000000e-06
)

// *********************** vim: set ft=cpp et sw=4 : *********************** //
