FoamFile
{
    version     2.0;
    format      ascii;
    class       vectorAverageField;
    object      U;
}

// * * * * * * * * * * * * * * * * * * * * * * * * * * * * * * * * * * * * * //

// Average
(0 0 0)

(
    // min z
    (0.500000e+00 0 0)
    (6.807531e-01 0 0)
    (1.557167e+00 0 0)
    (2.592098e+00 0 0)
    (3.766510e+00 0 0)
    (5.381331e+00 0 0)
    (7.319197e+00 0 0)
    (9.266925e+00 0 0)
    (1.091133e+01 0 0)
    (1.206786e+01 0 0)
    (1.313237e+01 0 0)
    (1.407435e+01 0 0)
    (1.478678e+01 0 0)
    (1.516263e+01 0 0)
    (1.526959e+01 0 0)
    (1.535232e+01 0 0)
    (1.541277e+01 0 0)
    (1.544871e+01 0 0)
    (1.545717e+01 0 0)
    (1.541052e+01 0 0)
    (1.532182e+01 0 0)
    (1.522681e+01 0 0)
    (1.516124e+01 0 0)
    (1.517463e+01 0 0)
    (1.534535e+01 0 0)
    (1.559967e+01 0 0)
    (1.584134e+01 0 0)
    (1.597412e+01 0 0)
    (1.595268e+01 0 0)
    (1.586180e+01 0 0)
    (1.574100e+01 0 0)
    (1.562702e+01 0 0)
    (1.555636e+01 0 0)
    (1.552192e+01 0 0)
    (1.549744e+01 0 0)
    (1.547513e+01 0 0)
    (1.544726e+01 0 0)
    (1.540593e+01 0 0)
    (1.534587e+01 0 0)
    (1.526895e+01 0 0)
    (1.517792e+01 0 0)
    (1.507553e+01 0 0)
    (1.496658e+01 0 0)
    (1.484863e+01 0 0)
    (1.470269e+01 0 0)
    (1.450911e+01 0 0)
    (1.424823e+01 0 0)
    (1.387451e+01 0 0)
    (1.312460e+01 0 0)
    (1.165488e+01 0 0)
    (0.200000e+00 0 0)

    // max z
    (0.500000e+00 0 0)
    (6.807531e-01 0 0)
    (1.557167e+00 0 0)
    (2.592098e+00 0 0)
    (3.766510e+00 0 0)
    (5.381331e+00 0 0)
    (7.319197e+00 0 0)
    (9.266925e+00 0 0)
    (1.091133e+01 0 0)
    (1.206786e+01 0 0)
    (1.313237e+01 0 0)
    (1.407435e+01 0 0)
    (1.478678e+01 0 0)
    (1.516263e+01 0 0)
    (1.526959e+01 0 0)
    (1.535232e+01 0 0)
    (1.541277e+01 0 0)
    (1.544871e+01 0 0)
    (1.545717e+01 0 0)
    (1.541052e+01 0 0)
    (1.532182e+01 0 0)
    (1.522681e+01 0 0)
    (1.516124e+01 0 0)
    (1.517463e+01 0 0)
    (1.534535e+01 0 0)
    (1.559967e+01 0 0)
    (1.584134e+01 0 0)
    (1.597412e+01 0 0)
    (1.595268e+01 0 0)
    (1.586180e+01 0 0)
    (1.574100e+01 0 0)
    (1.562702e+01 0 0)
    (1.555636e+01 0 0)
    (1.552192e+01 0 0)
    (1.549744e+01 0 0)
    (1.547513e+01 0 0)
    (1.544726e+01 0 0)
    (1.540593e+01 0 0)
    (1.534587e+01 0 0)
    (1.526895e+01 0 0)
    (1.517792e+01 0 0)
    (1.507553e+01 0 0)
    (1.496658e+01 0 0)
    (1.484863e+01 0 0)
    (1.470269e+01 0 0)
    (1.450911e+01 0 0)
    (1.424823e+01 0 0)
    (1.387451e+01 0 0)
    (1.312460e+01 0 0)
    (1.165488e+01 0 0)
    (0.200000e+00 0 0)
)

// *********************** vim: set ft=cpp et sw=4 : *********************** //
