FoamFile
{
    version     2.0;
    format      ascii;
    class       volScalarField;
    location    "0";
    object      T;
}
// * * * * * * * * * * * * * * * * * * * * * * * * * * * * * * * * * * * * * //

dimensions      [ 0 0 0 1 0 0 0 ];

internalField   uniform 294;

boundaryField
{
    jet
    {
        type            fixedValue;
        value           uniform 294;
    }
    coflow
    {
        type            fixedValue;
        value           uniform 294;
    }
    pilot
    {
        type            fixedValue;
        value           uniform 294;
    }
    outflow
    {
        type            zeroGradient;
    }
    axis
    {
        type            zeroGradient;
    }
    outerWall
    {
        type            zeroGradient;
    }
    back
    {
        type            wedge;
    }
    front
    {
        type            wedge;
    }
}

// *********************** vim: set ft=cpp et sw=4 : *********************** //
