FoamFile
{
    version     2.0;
    format      ascii;
    class       volVectorField;
    location    "0";
    object      U;
}
// * * * * * * * * * * * * * * * * * * * * * * * * * * * * * * * * * * * * * //

dimensions      [0 1 -1 0 0 0 0];

internalField   uniform (1.02075 0 0);

boundaryField
{
    front
    {
        type            wedge;
    }
    back
    {
        type            wedge;
    }
    jet
    {
        type            timeVaryingMappedFixedValue;
        setAverage      0;
    }
    pilot
    {
        type            timeVaryingMappedFixedValue;
        setAverage      0;
    }
    coflow
    {
        type            timeVaryingMappedFixedValue;
        setAverage      0;
    }
    outerWall
    {
        type            slip;
    }
    outflow
    {
        type            zeroGradient;
    }
    axis
    {
        type            slip;
    }
}

// *********************** vim: set ft=cpp et sw=4 : *********************** //
