FoamFile
{
    version     2.0;
    format      ascii;
    class       scalarAverageField;
    object      epsilon;
    note        "Calculated assuming turbulence in equilibrium: epsilon=sqrt(Cmu)*k*|dU/dr|";
}

// * * * * * * * * * * * * * * * * * * * * * * * * * * * * * * * * * * * * * //

// Average
0


(
     // min z
    1.26661204606124e+00
    1.26661204606124e+00
    1.59509355713363e+00
    2.44994882167280e-01
    2.29057202221072e-01
    1.03935147361983e-01
    5.37491928202907e-02
    2.32653215396966e-02
    2.01632786677371e-02

     // max z
    1.26661204606124e+00
    1.26661204606124e+00
    1.59509355713363e+00
    2.44994882167280e-01
    2.29057202221072e-01
    1.03935147361983e-01
    5.37491928202907e-02
    2.32653215396966e-02
    2.01632786677371e-02
)

// *********************** vim: set ft=cpp et sw=4 : *********************** //
