FoamFile
{
    version     2.0;
    format      ascii;
    class       scalarAverageField;
    object      k;
    note        "Computed from u' of the experimental data: k=3/2*(C*u')**2";
}

// * * * * * * * * * * * * * * * * * * * * * * * * * * * * * * * * * * * * * //

// Average
0

(
    // min z
    0.00000000000000e+00
    9.57986523605901e-04
    2.21333206413907e-03
    3.03528450139294e-03
    3.53152152062079e-03
    3.60547808024317e-03
    2.90039999886922e-03
    2.09837368130637e-03
    2.09837368130637e-03

    // max z
    0.00000000000000e+00
    9.57986523605901e-04
    2.21333206413907e-03
    3.03528450139294e-03
    3.53152152062079e-03
    3.60547808024317e-03
    2.90039999886922e-03
    2.09837368130637e-03
    2.09837368130637e-03
)

// *********************** vim: set ft=cpp et sw=4 : *********************** //
