FoamFile
{
    version     2.0;
    format      ascii;
    class       vectorAverageField;
    object      U;
    note        "From experimental data, scaled to give 9.2 m/s bulk velocity";
}

// * * * * * * * * * * * * * * * * * * * * * * * * * * * * * * * * * * * * * //

// Average
(0 0 0)

(
    // min z
    (0.00000000000000e+00 0 0)
    (4.54890194551251e+00 0 0)
    (7.98585008212195e+00 0 0)
    (8.33965356677293e+00 0 0)
    (8.69345705142390e+00 0 0)
    (8.79454376132418e+00 0 0)
    (9.09780389102501e+00 0 0)
    (9.24943395587543e+00 0 0)
    (9.35052066577571e+00 0 0)

    // max z
    (0.00000000000000e+00 0 0)
    (4.54890194551251e+00 0 0)
    (7.98585008212195e+00 0 0)
    (8.33965356677293e+00 0 0)
    (8.69345705142390e+00 0 0)
    (8.79454376132418e+00 0 0)
    (9.09780389102501e+00 0 0)
    (9.24943395587543e+00 0 0)
    (9.35052066577571e+00 0 0)
)

// *********************** vim: set ft=cpp et sw=4 : *********************** //
