FoamFile
{
    version     2.0;
    format      ascii;
    class       scalarAverageField;
    object      epsilon;
    note        "Calculated assuming turbulence in equilibrium: epsilon=sqrt(Cmu)*k*|dU/dr|";
}

// * * * * * * * * * * * * * * * * * * * * * * * * * * * * * * * * * * * * * //

// Average
0


(
    // min z
    9.3857002e-07
    9.8495985e-04
    3.9216591e-03
    8.7829008e-03
    1.5541586e-02
    1.9243923e-02
    1.6397434e-02
    1.3808840e-02
    1.1474803e-02
    9.5226375e-03
    8.0043264e-03
    6.6986459e-03
    5.6027286e-03
    4.9857378e-03
    4.9027522e-03
    4.8208468e-03
    4.7400130e-03
    4.6602427e-03
    4.5815275e-03
    4.5038593e-03
    4.4272297e-03
    4.3516306e-03
    4.2770538e-03
    4.2034911e-03
    4.1309344e-03
    4.0593756e-03
    3.9888066e-03
    3.9192194e-03
    3.8506059e-03
    3.7829581e-03
    3.7162680e-03
    3.6505278e-03
    3.5857292e-03
    3.5218648e-03
    3.4589264e-03
    3.3969062e-03
    3.3357964e-03
    3.2755891e-03
    3.2162767e-03
    3.1578513e-03
    3.1003052e-03
    3.0436307e-03
    2.9878200e-03
    2.9328656e-03
    2.8787599e-03
    2.8254952e-03
    2.7730639e-03
    2.7214585e-03
    2.6706714e-03
    2.6206951e-03
    2.5715222e-03
    1.1878887e-03
    8.2182287e-04
    5.7146946e-04
    3.8066750e-04
    2.3995811e-04
    1.4053419e-04
    7.4240328e-05
    3.3572837e-05
    1.1679743e-05
    2.3607879e-06
    6.7430669e-08
    2.7592230e-08
    6.4745428e-08
    9.8796315e-08
    1.2974489e-07
    1.5759116e-07
    1.8233511e-07
    2.0397675e-07
    2.2251608e-07
    2.3795310e-07
    2.5028781e-07
    2.5952021e-07
    2.6565030e-07
    2.6867807e-07
    2.6860354e-07
    2.6542669e-07
    2.5914754e-07
    2.4976607e-07
    2.3728229e-07
    2.2169620e-07
    2.0300780e-07
    1.8121709e-07
    1.5632406e-07
    1.2832873e-07
    9.7231084e-08
    6.3031127e-08
    2.5728859e-08
    1.4675720e-08
    5.8182610e-08
    1.0479181e-07
    1.5450332e-07
    2.0731715e-07
    2.6323328e-07
    3.2225173e-07
    3.8437249e-07
    4.4959555e-07
    5.1792093e-07
    5.8934862e-07
    6.6387863e-07
    7.4151094e-07
    8.2224556e-07

    // max z
    9.3857002e-07
    9.8495985e-04
    3.9216591e-03
    8.7829008e-03
    1.5541586e-02
    1.9243923e-02
    1.6397434e-02
    1.3808840e-02
    1.1474803e-02
    9.5226375e-03
    8.0043264e-03
    6.6986459e-03
    5.6027286e-03
    4.9857378e-03
    4.9027522e-03
    4.8208468e-03
    4.7400130e-03
    4.6602427e-03
    4.5815275e-03
    4.5038593e-03
    4.4272297e-03
    4.3516306e-03
    4.2770538e-03
    4.2034911e-03
    4.1309344e-03
    4.0593756e-03
    3.9888066e-03
    3.9192194e-03
    3.8506059e-03
    3.7829581e-03
    3.7162680e-03
    3.6505278e-03
    3.5857292e-03
    3.5218648e-03
    3.4589264e-03
    3.3969062e-03
    3.3357964e-03
    3.2755891e-03
    3.2162767e-03
    3.1578513e-03
    3.1003052e-03
    3.0436307e-03
    2.9878200e-03
    2.9328656e-03
    2.8787599e-03
    2.8254952e-03
    2.7730639e-03
    2.7214585e-03
    2.6706714e-03
    2.6206951e-03
    2.5715222e-03
    1.1878887e-03
    8.2182287e-04
    5.7146946e-04
    3.8066750e-04
    2.3995811e-04
    1.4053419e-04
    7.4240328e-05
    3.3572837e-05
    1.1679743e-05
    2.3607879e-06
    6.7430669e-08
    2.7592230e-08
    6.4745428e-08
    9.8796315e-08
    1.2974489e-07
    1.5759116e-07
    1.8233511e-07
    2.0397675e-07
    2.2251608e-07
    2.3795310e-07
    2.5028781e-07
    2.5952021e-07
    2.6565030e-07
    2.6867807e-07
    2.6860354e-07
    2.6542669e-07
    2.5914754e-07
    2.4976607e-07
    2.3728229e-07
    2.2169620e-07
    2.0300780e-07
    1.8121709e-07
    1.5632406e-07
    1.2832873e-07
    9.7231084e-08
    6.3031127e-08
    2.5728859e-08
    1.4675720e-08
    5.8182610e-08
    1.0479181e-07
    1.5450332e-07
    2.0731715e-07
    2.6323328e-07
    3.2225173e-07
    3.8437249e-07
    4.4959555e-07
    5.1792093e-07
    5.8934862e-07
    6.6387863e-07
    7.4151094e-07
    8.2224556e-07
)

// *********************** vim: set ft=cpp et sw=4 : *********************** //
