FoamFile
{
    version     2.0;
    format      ascii;
    class       scalarAverageField;
    object      k;
    note        "Computed from u' of the experimental data: k=1/2*u'_ii*u'_ii";
}

// * * * * * * * * * * * * * * * * * * * * * * * * * * * * * * * * * * * * * //

// Average
0

(
    // min z
    1.0000000e-06
    1.0542773e-03
    4.2171092e-03
    9.4884956e-03
    1.6868437e-02
    2.0984519e-02
    1.7964412e-02
    1.5199590e-02
    1.2690051e-02
    1.0580952e-02
    8.9360918e-03
    7.5140001e-03
    6.3146772e-03
    5.6461768e-03
    5.5788487e-03
    5.5120573e-03
    5.4458026e-03
    5.3800847e-03
    5.3149034e-03
    5.2502589e-03
    5.1861512e-03
    5.1225801e-03
    5.0595458e-03
    4.9970482e-03
    4.9350873e-03
    4.8736632e-03
    4.8127758e-03
    4.7524251e-03
    4.6926111e-03
    4.6333338e-03
    4.5745933e-03
    4.5163895e-03
    4.4587224e-03
    4.4015921e-03
    4.3449985e-03
    4.2889416e-03
    4.2334214e-03
    4.1784379e-03
    4.1239912e-03
    4.0700812e-03
    4.0167079e-03
    3.9638714e-03
    3.9115715e-03
    3.8598084e-03
    3.8085821e-03
    3.7578924e-03
    3.7077395e-03
    3.6581233e-03
    3.6090438e-03
    3.5605010e-03
    3.5124950e-03
    2.0276484e-03
    1.5971158e-03
    1.2802006e-03
    9.9829785e-04
    7.5140744e-04
    5.3952941e-04
    3.6266376e-04
    2.2081048e-04
    1.1396958e-04
    4.2141048e-05
    5.3248978e-06
    1.0000000e-06
    1.0000000e-06
    1.0000000e-06
    1.0000000e-06
    1.0000000e-06
    1.0000000e-06
    1.0000000e-06
    1.0000000e-06
    1.0000000e-06
    1.0000000e-06
    1.0000000e-06
    1.0000000e-06
    1.0000000e-06
    1.0000000e-06
    1.0000000e-06
    1.0000000e-06
    1.0000000e-06
    1.0000000e-06
    1.0000000e-06
    1.0000000e-06
    1.0000000e-06
    1.0000000e-06
    1.0000000e-06
    1.0000000e-06
    1.0000000e-06
    1.0000000e-06
    1.0000000e-06
    1.0000000e-06
    1.0000000e-06
    1.0000000e-06
    1.0000000e-06
    1.0000000e-06
    1.0000000e-06
    1.0000000e-06
    1.0000000e-06
    1.0000000e-06
    1.0000000e-06
    1.0000000e-06
    1.0000000e-06
    1.0000000e-06

    // max z
    1.0000000e-06
    1.0542773e-03
    4.2171092e-03
    9.4884956e-03
    1.6868437e-02
    2.0984519e-02
    1.7964412e-02
    1.5199590e-02
    1.2690051e-02
    1.0580952e-02
    8.9360918e-03
    7.5140001e-03
    6.3146772e-03
    5.6461768e-03
    5.5788487e-03
    5.5120573e-03
    5.4458026e-03
    5.3800847e-03
    5.3149034e-03
    5.2502589e-03
    5.1861512e-03
    5.1225801e-03
    5.0595458e-03
    4.9970482e-03
    4.9350873e-03
    4.8736632e-03
    4.8127758e-03
    4.7524251e-03
    4.6926111e-03
    4.6333338e-03
    4.5745933e-03
    4.5163895e-03
    4.4587224e-03
    4.4015921e-03
    4.3449985e-03
    4.2889416e-03
    4.2334214e-03
    4.1784379e-03
    4.1239912e-03
    4.0700812e-03
    4.0167079e-03
    3.9638714e-03
    3.9115715e-03
    3.8598084e-03
    3.8085821e-03
    3.7578924e-03
    3.7077395e-03
    3.6581233e-03
    3.6090438e-03
    3.5605010e-03
    3.5124950e-03
    2.0276484e-03
    1.5971158e-03
    1.2802006e-03
    9.9829785e-04
    7.5140744e-04
    5.3952941e-04
    3.6266376e-04
    2.2081048e-04
    1.1396958e-04
    4.2141048e-05
    5.3248978e-06
    1.0000000e-06
    1.0000000e-06
    1.0000000e-06
    1.0000000e-06
    1.0000000e-06
    1.0000000e-06
    1.0000000e-06
    1.0000000e-06
    1.0000000e-06
    1.0000000e-06
    1.0000000e-06
    1.0000000e-06
    1.0000000e-06
    1.0000000e-06
    1.0000000e-06
    1.0000000e-06
    1.0000000e-06
    1.0000000e-06
    1.0000000e-06
    1.0000000e-06
    1.0000000e-06
    1.0000000e-06
    1.0000000e-06
    1.0000000e-06
    1.0000000e-06
    1.0000000e-06
    1.0000000e-06
    1.0000000e-06
    1.0000000e-06
    1.0000000e-06
    1.0000000e-06
    1.0000000e-06
    1.0000000e-06
    1.0000000e-06
    1.0000000e-06
    1.0000000e-06
    1.0000000e-06
    1.0000000e-06
    1.0000000e-06
    1.0000000e-06
)

// *********************** vim: set ft=cpp et sw=4 : *********************** //
