FoamFile
{
    version     2.0;
    format      ascii;
    class       vectorAverageField;
    object      U;
    note        "From experimental data, scaled to give 9.2 m/s bulk velocity";
}

// * * * * * * * * * * * * * * * * * * * * * * * * * * * * * * * * * * * * * //

// Average
(0 0 0)

(
    // min z
    (0.200000e+00 0 0)
    (3.406032e-01 0 0)
    (6.425558e-01 0 0)
    (8.769306e-01 0 0)
    (1.014801e+00 0 0)
    (1.038407e+00 0 0)
    (1.031593e+00 0 0)
    (1.021758e+00 0 0)
    (1.013890e+00 0 0)
    (1.013627e+00 0 0)
    (1.027470e+00 0 0)
    (1.047729e+00 0 0)
    (1.064115e+00 0 0)
    (1.067817e+00 0 0)
    (1.067815e+00 0 0)
    (1.067805e+00 0 0)
    (1.067783e+00 0 0)
    (1.067742e+00 0 0)
    (1.067678e+00 0 0)
    (1.067584e+00 0 0)
    (1.067456e+00 0 0)
    (1.067289e+00 0 0)
    (1.067076e+00 0 0)
    (1.066812e+00 0 0)
    (1.066492e+00 0 0)
    (1.066111e+00 0 0)
    (1.065662e+00 0 0)
    (1.065142e+00 0 0)
    (1.064543e+00 0 0)
    (1.063862e+00 0 0)
    (1.063092e+00 0 0)
    (1.062228e+00 0 0)
    (1.061264e+00 0 0)
    (1.060196e+00 0 0)
    (1.059017e+00 0 0)
    (1.057723e+00 0 0)
    (1.056307e+00 0 0)
    (1.054766e+00 0 0)
    (1.053092e+00 0 0)
    (1.051281e+00 0 0)
    (1.049327e+00 0 0)
    (1.047226e+00 0 0)
    (1.044970e+00 0 0)
    (1.042556e+00 0 0)
    (1.039977e+00 0 0)
    (1.037229e+00 0 0)
    (1.034305e+00 0 0)
    (1.031201e+00 0 0)
    (1.027911e+00 0 0)
    (1.024429e+00 0 0)
    (1.020751e+00 0 0)
    (1.020751e+00 0 0)
    (1.020751e+00 0 0)
    (1.020751e+00 0 0)
    (1.020751e+00 0 0)
    (1.020751e+00 0 0)
    (1.020751e+00 0 0)
    (1.020751e+00 0 0)
    (1.020751e+00 0 0)
    (1.020751e+00 0 0)
    (1.020751e+00 0 0)
    (1.020751e+00 0 0)
    (1.020751e+00 0 0)
    (1.020751e+00 0 0)
    (1.020751e+00 0 0)
    (1.020751e+00 0 0)
    (1.020751e+00 0 0)
    (1.020751e+00 0 0)
    (1.020751e+00 0 0)
    (1.020751e+00 0 0)
    (1.020751e+00 0 0)
    (1.020751e+00 0 0)
    (1.020751e+00 0 0)
    (1.020751e+00 0 0)
    (1.020751e+00 0 0)
    (1.020751e+00 0 0)
    (1.020751e+00 0 0)
    (1.020751e+00 0 0)
    (1.020751e+00 0 0)
    (1.020751e+00 0 0)
    (1.020751e+00 0 0)
    (1.020751e+00 0 0)
    (1.020751e+00 0 0)
    (1.020751e+00 0 0)
    (1.020751e+00 0 0)
    (1.020751e+00 0 0)
    (1.020751e+00 0 0)
    (1.020751e+00 0 0)
    (1.020751e+00 0 0)
    (1.020751e+00 0 0)
    (1.020751e+00 0 0)
    (1.020751e+00 0 0)
    (1.020751e+00 0 0)
    (1.020751e+00 0 0)
    (1.020751e+00 0 0)
    (1.020751e+00 0 0)
    (1.020751e+00 0 0)
    (1.020751e+00 0 0)
    (1.020751e+00 0 0)
    (1.020751e+00 0 0)
    (1.020751e+00 0 0)
    (1.020751e+00 0 0)

    // max z
    (0.200000e+00 0 0)
    (3.406032e-01 0 0)
    (6.425558e-01 0 0)
    (8.769306e-01 0 0)
    (1.014801e+00 0 0)
    (1.038407e+00 0 0)
    (1.031593e+00 0 0)
    (1.021758e+00 0 0)
    (1.013890e+00 0 0)
    (1.013627e+00 0 0)
    (1.027470e+00 0 0)
    (1.047729e+00 0 0)
    (1.064115e+00 0 0)
    (1.067817e+00 0 0)
    (1.067815e+00 0 0)
    (1.067805e+00 0 0)
    (1.067783e+00 0 0)
    (1.067742e+00 0 0)
    (1.067678e+00 0 0)
    (1.067584e+00 0 0)
    (1.067456e+00 0 0)
    (1.067289e+00 0 0)
    (1.067076e+00 0 0)
    (1.066812e+00 0 0)
    (1.066492e+00 0 0)
    (1.066111e+00 0 0)
    (1.065662e+00 0 0)
    (1.065142e+00 0 0)
    (1.064543e+00 0 0)
    (1.063862e+00 0 0)
    (1.063092e+00 0 0)
    (1.062228e+00 0 0)
    (1.061264e+00 0 0)
    (1.060196e+00 0 0)
    (1.059017e+00 0 0)
    (1.057723e+00 0 0)
    (1.056307e+00 0 0)
    (1.054766e+00 0 0)
    (1.053092e+00 0 0)
    (1.051281e+00 0 0)
    (1.049327e+00 0 0)
    (1.047226e+00 0 0)
    (1.044970e+00 0 0)
    (1.042556e+00 0 0)
    (1.039977e+00 0 0)
    (1.037229e+00 0 0)
    (1.034305e+00 0 0)
    (1.031201e+00 0 0)
    (1.027911e+00 0 0)
    (1.024429e+00 0 0)
    (1.020751e+00 0 0)
    (1.020751e+00 0 0)
    (1.020751e+00 0 0)
    (1.020751e+00 0 0)
    (1.020751e+00 0 0)
    (1.020751e+00 0 0)
    (1.020751e+00 0 0)
    (1.020751e+00 0 0)
    (1.020751e+00 0 0)
    (1.020751e+00 0 0)
    (1.020751e+00 0 0)
    (1.020751e+00 0 0)
    (1.020751e+00 0 0)
    (1.020751e+00 0 0)
    (1.020751e+00 0 0)
    (1.020751e+00 0 0)
    (1.020751e+00 0 0)
    (1.020751e+00 0 0)
    (1.020751e+00 0 0)
    (1.020751e+00 0 0)
    (1.020751e+00 0 0)
    (1.020751e+00 0 0)
    (1.020751e+00 0 0)
    (1.020751e+00 0 0)
    (1.020751e+00 0 0)
    (1.020751e+00 0 0)
    (1.020751e+00 0 0)
    (1.020751e+00 0 0)
    (1.020751e+00 0 0)
    (1.020751e+00 0 0)
    (1.020751e+00 0 0)
    (1.020751e+00 0 0)
    (1.020751e+00 0 0)
    (1.020751e+00 0 0)
    (1.020751e+00 0 0)
    (1.020751e+00 0 0)
    (1.020751e+00 0 0)
    (1.020751e+00 0 0)
    (1.020751e+00 0 0)
    (1.020751e+00 0 0)
    (1.020751e+00 0 0)
    (1.020751e+00 0 0)
    (1.020751e+00 0 0)
    (1.020751e+00 0 0)
    (1.020751e+00 0 0)
    (1.020751e+00 0 0)
    (1.020751e+00 0 0)
    (1.020751e+00 0 0)
    (1.020751e+00 0 0)
    (1.020751e+00 0 0)
    (1.020751e+00 0 0)
    (1.020751e+00 0 0)
)

// *********************** vim: set ft=cpp et sw=4 : *********************** //
