
FoamFile
{
      version         2.0;
      format          ascii;
      class           dictionary;
      object          setDiscreteFieldsDict;
}

Fields
(
    U
    {
        field U;
        type vector;
        direction "y";
        internal false;
        patchNames (jet coflow);
        profile         // if type is vector (x y z Ux Uy Uz)
        (
            (0 0 0 97.7986 0 0)
(0 1.8018e-06 0 97.762 0 0)
(0 3.6036e-06 0 97.7254 0 0)
(0 5.40541e-06 0 97.6887 0 0)
(0 7.20721e-06 0 97.652 0 0)
(0 9.00901e-06 0 97.6152 0 0)
(0 1.08108e-05 0 97.5785 0 0)
(0 1.26126e-05 0 97.5416 0 0)
(0 1.44144e-05 0 97.5048 0 0)
(0 1.62162e-05 0 97.4679 0 0)
(0 1.8018e-05 0 97.431 0 0)
(0 1.98198e-05 0 97.394 0 0)
(0 2.16216e-05 0 97.357 0 0)
(0 2.34234e-05 0 97.32 0 0)
(0 2.52252e-05 0 97.2829 0 0)
(0 2.7027e-05 0 97.2458 0 0)
(0 2.88288e-05 0 97.2087 0 0)
(0 3.06306e-05 0 97.1715 0 0)
(0 3.24324e-05 0 97.1343 0 0)
(0 3.42342e-05 0 97.0971 0 0)
(0 3.6036e-05 0 97.0598 0 0)
(0 3.78378e-05 0 97.0225 0 0)
(0 3.96396e-05 0 96.9851 0 0)
(0 4.14414e-05 0 96.9478 0 0)
(0 4.32432e-05 0 96.9104 0 0)
(0 4.5045e-05 0 96.8729 0 0)
(0 4.68468e-05 0 96.8354 0 0)
(0 4.86486e-05 0 96.7979 0 0)
(0 5.04505e-05 0 96.7604 0 0)
(0 5.22523e-05 0 96.7228 0 0)
(0 5.40541e-05 0 96.6852 0 0)
(0 5.58559e-05 0 96.6476 0 0)
(0 5.76577e-05 0 96.6099 0 0)
(0 5.94595e-05 0 96.5722 0 0)
(0 6.12613e-05 0 96.5345 0 0)
(0 6.30631e-05 0 96.4967 0 0)
(0 6.48649e-05 0 96.4589 0 0)
(0 6.66667e-05 0 96.4211 0 0)
(0 6.84685e-05 0 96.3833 0 0)
(0 7.02703e-05 0 96.3454 0 0)
(0 7.20721e-05 0 96.3074 0 0)
(0 7.38739e-05 0 96.2695 0 0)
(0 7.56757e-05 0 96.2315 0 0)
(0 7.74775e-05 0 96.1935 0 0)
(0 7.92793e-05 0 96.1555 0 0)
(0 8.10811e-05 0 96.1174 0 0)
(0 8.28829e-05 0 96.0793 0 0)
(0 8.46847e-05 0 96.0412 0 0)
(0 8.64865e-05 0 96.003 0 0)
(0 8.82883e-05 0 95.9648 0 0)
(0 9.00901e-05 0 95.9266 0 0)
(0 9.18919e-05 0 95.8884 0 0)
(0 9.36937e-05 0 95.8501 0 0)
(0 9.54955e-05 0 95.8118 0 0)
(0 9.72973e-05 0 95.7735 0 0)
(0 9.90991e-05 0 95.7351 0 0)
(0 0.000100901 0 95.6967 0 0)
(0 0.000102703 0 95.6583 0 0)
(0 0.000104505 0 95.6198 0 0)
(0 0.000106306 0 95.5814 0 0)
(0 0.000108108 0 95.5429 0 0)
(0 0.00010991 0 95.5043 0 0)
(0 0.000111712 0 95.4658 0 0)
(0 0.000113514 0 95.4272 0 0)
(0 0.000115315 0 95.3886 0 0)
(0 0.000117117 0 95.35 0 0)
(0 0.000118919 0 95.3113 0 0)
(0 0.000120721 0 95.2726 0 0)
(0 0.000122523 0 95.2339 0 0)
(0 0.000124324 0 95.1952 0 0)
(0 0.000126126 0 95.1564 0 0)
(0 0.000127928 0 95.1176 0 0)
(0 0.00012973 0 95.0788 0 0)
(0 0.000131532 0 95.04 0 0)
(0 0.000133333 0 95.0011 0 0)
(0 0.000135135 0 94.9622 0 0)
(0 0.000136937 0 94.9233 0 0)
(0 0.000138739 0 94.8843 0 0)
(0 0.000140541 0 94.8454 0 0)
(0 0.000142342 0 94.8064 0 0)
(0 0.000144144 0 94.7674 0 0)
(0 0.000145946 0 94.7283 0 0)
(0 0.000147748 0 94.6893 0 0)
(0 0.00014955 0 94.6502 0 0)
(0 0.000151351 0 94.6111 0 0)
(0 0.000153153 0 94.5719 0 0)
(0 0.000154955 0 94.5328 0 0)
(0 0.000156757 0 94.4936 0 0)
(0 0.000158559 0 94.4544 0 0)
(0 0.00016036 0 94.4152 0 0)
(0 0.000162162 0 94.3759 0 0)
(0 0.000163964 0 94.3366 0 0)
(0 0.000165766 0 94.2973 0 0)
(0 0.000167568 0 94.258 0 0)
(0 0.000169369 0 94.2187 0 0)
(0 0.000171171 0 94.1793 0 0)
(0 0.000172973 0 94.1399 0 0)
(0 0.000174775 0 94.1005 0 0)
(0 0.000176577 0 94.0611 0 0)
(0 0.000178378 0 94.0217 0 0)
(0 0.00018018 0 93.9822 0 0)
(0 0.000181982 0 93.9427 0 0)
(0 0.000183784 0 93.9032 0 0)
(0 0.000185586 0 93.8637 0 0)
(0 0.000187387 0 93.8241 0 0)
(0 0.000189189 0 93.7846 0 0)
(0 0.000190991 0 93.745 0 0)
(0 0.000192793 0 93.7054 0 0)
(0 0.000194595 0 93.6657 0 0)
(0 0.000196396 0 93.6261 0 0)
(0 0.000198198 0 93.5864 0 0)
(0 0.0002 0 93.5467 0 0)
(0 0.000201802 0 93.507 0 0)
(0 0.000203604 0 93.4673 0 0)
(0 0.000205405 0 93.4276 0 0)
(0 0.000207207 0 93.3878 0 0)
(0 0.000209009 0 93.348 0 0)
(0 0.000210811 0 93.3082 0 0)
(0 0.000212613 0 93.2684 0 0)
(0 0.000214414 0 93.2286 0 0)
(0 0.000216216 0 93.1887 0 0)
(0 0.000218018 0 93.1488 0 0)
(0 0.00021982 0 93.109 0 0)
(0 0.000221622 0 93.069 0 0)
(0 0.000223423 0 93.0291 0 0)
(0 0.000225225 0 92.9892 0 0)
(0 0.000227027 0 92.9492 0 0)
(0 0.000228829 0 92.9093 0 0)
(0 0.000230631 0 92.8693 0 0)
(0 0.000232432 0 92.8293 0 0)
(0 0.000234234 0 92.7892 0 0)
(0 0.000236036 0 92.7492 0 0)
(0 0.000237838 0 92.7092 0 0)
(0 0.00023964 0 92.6691 0 0)
(0 0.000241441 0 92.629 0 0)
(0 0.000243243 0 92.5889 0 0)
(0 0.000245045 0 92.5488 0 0)
(0 0.000246847 0 92.5087 0 0)
(0 0.000248649 0 92.4685 0 0)
(0 0.00025045 0 92.4283 0 0)
(0 0.000252252 0 92.3882 0 0)
(0 0.000254054 0 92.348 0 0)
(0 0.000255856 0 92.3078 0 0)
(0 0.000257658 0 92.2676 0 0)
(0 0.000259459 0 92.2273 0 0)
(0 0.000261261 0 92.1871 0 0)
(0 0.000263063 0 92.1468 0 0)
(0 0.000264865 0 92.1066 0 0)
(0 0.000266667 0 92.0663 0 0)
(0 0.000268468 0 92.026 0 0)
(0 0.00027027 0 91.9857 0 0)
(0 0.000272072 0 91.9453 0 0)
(0 0.000273874 0 91.905 0 0)
(0 0.000275676 0 91.8647 0 0)
(0 0.000277477 0 91.8243 0 0)
(0 0.000279279 0 91.7839 0 0)
(0 0.000281081 0 91.7435 0 0)
(0 0.000282883 0 91.7031 0 0)
(0 0.000284685 0 91.6627 0 0)
(0 0.000286486 0 91.6223 0 0)
(0 0.000288288 0 91.5819 0 0)
(0 0.00029009 0 91.5415 0 0)
(0 0.000291892 0 91.501 0 0)
(0 0.000293694 0 91.4605 0 0)
(0 0.000295495 0 91.4201 0 0)
(0 0.000297297 0 91.3796 0 0)
(0 0.000299099 0 91.3391 0 0)
(0 0.000300901 0 91.2986 0 0)
(0 0.000302703 0 91.2581 0 0)
(0 0.000304505 0 91.2175 0 0)
(0 0.000306306 0 91.177 0 0)
(0 0.000308108 0 91.1365 0 0)
(0 0.00030991 0 91.0959 0 0)
(0 0.000311712 0 91.0553 0 0)
(0 0.000313514 0 91.0148 0 0)
(0 0.000315315 0 90.9742 0 0)
(0 0.000317117 0 90.9336 0 0)
(0 0.000318919 0 90.893 0 0)
(0 0.000320721 0 90.8524 0 0)
(0 0.000322523 0 90.8118 0 0)
(0 0.000324324 0 90.7712 0 0)
(0 0.000326126 0 90.7305 0 0)
(0 0.000327928 0 90.6899 0 0)
(0 0.00032973 0 90.6492 0 0)
(0 0.000331532 0 90.6086 0 0)
(0 0.000333333 0 90.5679 0 0)
(0 0.000335135 0 90.5273 0 0)
(0 0.000336937 0 90.4866 0 0)
(0 0.000338739 0 90.4459 0 0)
(0 0.000340541 0 90.4052 0 0)
(0 0.000342342 0 90.3645 0 0)
(0 0.000344144 0 90.3238 0 0)
(0 0.000345946 0 90.2831 0 0)
(0 0.000347748 0 90.2424 0 0)
(0 0.00034955 0 90.2017 0 0)
(0 0.000351351 0 90.161 0 0)
(0 0.000353153 0 90.1202 0 0)
(0 0.000354955 0 90.0795 0 0)
(0 0.000356757 0 90.0388 0 0)
(0 0.000358559 0 89.998 0 0)
(0 0.00036036 0 89.9573 0 0)
(0 0.000362162 0 89.9165 0 0)
(0 0.000363964 0 89.8758 0 0)
(0 0.000365766 0 89.835 0 0)
(0 0.000367568 0 89.7942 0 0)
(0 0.000369369 0 89.7535 0 0)
(0 0.000371171 0 89.7127 0 0)
(0 0.000372973 0 89.6719 0 0)
(0 0.000374775 0 89.6311 0 0)
(0 0.000376577 0 89.5904 0 0)
(0 0.000378378 0 89.5496 0 0)
(0 0.00038018 0 89.5088 0 0)
(0 0.000381982 0 89.468 0 0)
(0 0.000383784 0 89.4272 0 0)
(0 0.000385586 0 89.3864 0 0)
(0 0.000387387 0 89.3456 0 0)
(0 0.000389189 0 89.3048 0 0)
(0 0.000390991 0 89.264 0 0)
(0 0.000392793 0 89.2232 0 0)
(0 0.000394595 0 89.1824 0 0)
(0 0.000396396 0 89.1415 0 0)
(0 0.000398198 0 89.1007 0 0)
(0 0.0004 0 89.0599 0 0)
(0 0.000401802 0 89.0191 0 0)
(0 0.000403604 0 88.9783 0 0)
(0 0.000405405 0 88.9375 0 0)
(0 0.000407207 0 88.8967 0 0)
(0 0.000409009 0 88.8558 0 0)
(0 0.000410811 0 88.815 0 0)
(0 0.000412613 0 88.7742 0 0)
(0 0.000414414 0 88.7334 0 0)
(0 0.000416216 0 88.6926 0 0)
(0 0.000418018 0 88.6518 0 0)
(0 0.00041982 0 88.6109 0 0)
(0 0.000421622 0 88.5701 0 0)
(0 0.000423423 0 88.5293 0 0)
(0 0.000425225 0 88.4885 0 0)
(0 0.000427027 0 88.4477 0 0)
(0 0.000428829 0 88.4069 0 0)
(0 0.000430631 0 88.3661 0 0)
(0 0.000432432 0 88.3253 0 0)
(0 0.000434234 0 88.2845 0 0)
(0 0.000436036 0 88.2437 0 0)
(0 0.000437838 0 88.2029 0 0)
(0 0.00043964 0 88.1621 0 0)
(0 0.000441441 0 88.1213 0 0)
(0 0.000443243 0 88.0805 0 0)
(0 0.000445045 0 88.0397 0 0)
(0 0.000446847 0 87.9989 0 0)
(0 0.000448649 0 87.9581 0 0)
(0 0.00045045 0 87.9173 0 0)
(0 0.000452252 0 87.8765 0 0)
(0 0.000454054 0 87.8358 0 0)
(0 0.000455856 0 87.795 0 0)
(0 0.000457658 0 87.7542 0 0)
(0 0.000459459 0 87.7135 0 0)
(0 0.000461261 0 87.6727 0 0)
(0 0.000463063 0 87.632 0 0)
(0 0.000464865 0 87.5912 0 0)
(0 0.000466667 0 87.5505 0 0)
(0 0.000468468 0 87.5097 0 0)
(0 0.00047027 0 87.469 0 0)
(0 0.000472072 0 87.4283 0 0)
(0 0.000473874 0 87.3875 0 0)
(0 0.000475676 0 87.3468 0 0)
(0 0.000477477 0 87.3061 0 0)
(0 0.000479279 0 87.2654 0 0)
(0 0.000481081 0 87.2247 0 0)
(0 0.000482883 0 87.184 0 0)
(0 0.000484685 0 87.1433 0 0)
(0 0.000486486 0 87.1026 0 0)
(0 0.000488288 0 87.062 0 0)
(0 0.00049009 0 87.0213 0 0)
(0 0.000491892 0 86.9806 0 0)
(0 0.000493694 0 86.94 0 0)
(0 0.000495495 0 86.8993 0 0)
(0 0.000497297 0 86.8587 0 0)
(0 0.000499099 0 86.8181 0 0)
(0 0.000500901 0 86.7774 0 0)
(0 0.000502703 0 86.7368 0 0)
(0 0.000504505 0 86.6962 0 0)
(0 0.000506306 0 86.6556 0 0)
(0 0.000508108 0 86.615 0 0)
(0 0.00050991 0 86.5744 0 0)
(0 0.000511712 0 86.5339 0 0)
(0 0.000513514 0 86.4933 0 0)
(0 0.000515315 0 86.4528 0 0)
(0 0.000517117 0 86.4122 0 0)
(0 0.000518919 0 86.3717 0 0)
(0 0.000520721 0 86.3312 0 0)
(0 0.000522523 0 86.2906 0 0)
(0 0.000524324 0 86.2501 0 0)
(0 0.000526126 0 86.2096 0 0)
(0 0.000527928 0 86.1691 0 0)
(0 0.00052973 0 86.1287 0 0)
(0 0.000531532 0 86.0882 0 0)
(0 0.000533333 0 86.0478 0 0)
(0 0.000535135 0 86.0073 0 0)
(0 0.000536937 0 85.9669 0 0)
(0 0.000538739 0 85.9265 0 0)
(0 0.000540541 0 85.8861 0 0)
(0 0.000542342 0 85.8457 0 0)
(0 0.000544144 0 85.8053 0 0)
(0 0.000545946 0 85.7649 0 0)
(0 0.000547748 0 85.7245 0 0)
(0 0.00054955 0 85.6842 0 0)
(0 0.000551351 0 85.6439 0 0)
(0 0.000553153 0 85.6035 0 0)
(0 0.000554955 0 85.5632 0 0)
(0 0.000556757 0 85.5229 0 0)
(0 0.000558559 0 85.4826 0 0)
(0 0.00056036 0 85.4424 0 0)
(0 0.000562162 0 85.4021 0 0)
(0 0.000563964 0 85.3619 0 0)
(0 0.000565766 0 85.3216 0 0)
(0 0.000567568 0 85.2814 0 0)
(0 0.000569369 0 85.2412 0 0)
(0 0.000571171 0 85.201 0 0)
(0 0.000572973 0 85.1608 0 0)
(0 0.000574775 0 85.1207 0 0)
(0 0.000576577 0 85.0805 0 0)
(0 0.000578378 0 85.0404 0 0)
(0 0.00058018 0 85.0003 0 0)
(0 0.000581982 0 84.9602 0 0)
(0 0.000583784 0 84.9201 0 0)
(0 0.000585586 0 84.88 0 0)
(0 0.000587387 0 84.84 0 0)
(0 0.000589189 0 84.7999 0 0)
(0 0.000590991 0 84.7599 0 0)
(0 0.000592793 0 84.7199 0 0)
(0 0.000594595 0 84.6799 0 0)
(0 0.000596396 0 84.6399 0 0)
(0 0.000598198 0 84.6 0 0)
(0 0.0006 0 84.56 0 0)
(0 0.000601802 0 84.5201 0 0)
(0 0.000603604 0 84.4802 0 0)
(0 0.000605405 0 84.4403 0 0)
(0 0.000607207 0 84.4004 0 0)
(0 0.000609009 0 84.3606 0 0)
(0 0.000610811 0 84.3208 0 0)
(0 0.000612613 0 84.2809 0 0)
(0 0.000614414 0 84.2411 0 0)
(0 0.000616216 0 84.2014 0 0)
(0 0.000618018 0 84.1616 0 0)
(0 0.00061982 0 84.1218 0 0)
(0 0.000621622 0 84.0821 0 0)
(0 0.000623423 0 84.0424 0 0)
(0 0.000625225 0 84.0027 0 0)
(0 0.000627027 0 83.9631 0 0)
(0 0.000628829 0 83.9234 0 0)
(0 0.000630631 0 83.8838 0 0)
(0 0.000632432 0 83.8442 0 0)
(0 0.000634234 0 83.8046 0 0)
(0 0.000636036 0 83.765 0 0)
(0 0.000637838 0 83.7255 0 0)
(0 0.00063964 0 83.6859 0 0)
(0 0.000641441 0 83.6464 0 0)
(0 0.000643243 0 83.6069 0 0)
(0 0.000645045 0 83.5675 0 0)
(0 0.000646847 0 83.528 0 0)
(0 0.000648649 0 83.4886 0 0)
(0 0.00065045 0 83.4492 0 0)
(0 0.000652252 0 83.4098 0 0)
(0 0.000654054 0 83.3704 0 0)
(0 0.000655856 0 83.3311 0 0)
(0 0.000657658 0 83.2918 0 0)
(0 0.000659459 0 83.2525 0 0)
(0 0.000661261 0 83.2132 0 0)
(0 0.000663063 0 83.174 0 0)
(0 0.000664865 0 83.1347 0 0)
(0 0.000666667 0 83.0955 0 0)
(0 0.000668468 0 83.0563 0 0)
(0 0.00067027 0 83.0172 0 0)
(0 0.000672072 0 82.978 0 0)
(0 0.000673874 0 82.9389 0 0)
(0 0.000675676 0 82.8998 0 0)
(0 0.000677477 0 82.8608 0 0)
(0 0.000679279 0 82.8217 0 0)
(0 0.000681081 0 82.7827 0 0)
(0 0.000682883 0 82.7437 0 0)
(0 0.000684685 0 82.7048 0 0)
(0 0.000686486 0 82.6658 0 0)
(0 0.000688288 0 82.6269 0 0)
(0 0.00069009 0 82.588 0 0)
(0 0.000691892 0 82.5491 0 0)
(0 0.000693694 0 82.5103 0 0)
(0 0.000695495 0 82.4715 0 0)
(0 0.000697297 0 82.4327 0 0)
(0 0.000699099 0 82.3939 0 0)
(0 0.000700901 0 82.3552 0 0)
(0 0.000702703 0 82.3164 0 0)
(0 0.000704505 0 82.2778 0 0)
(0 0.000706306 0 82.2391 0 0)
(0 0.000708108 0 82.2005 0 0)
(0 0.00070991 0 82.1618 0 0)
(0 0.000711712 0 82.1233 0 0)
(0 0.000713514 0 82.0847 0 0)
(0 0.000715315 0 82.0462 0 0)
(0 0.000717117 0 82.0077 0 0)
(0 0.000718919 0 81.9692 0 0)
(0 0.000720721 0 81.9308 0 0)
(0 0.000722523 0 81.8923 0 0)
(0 0.000724324 0 81.8539 0 0)
(0 0.000726126 0 81.8156 0 0)
(0 0.000727928 0 81.7773 0 0)
(0 0.00072973 0 81.7389 0 0)
(0 0.000731532 0 81.7007 0 0)
(0 0.000733333 0 81.6624 0 0)
(0 0.000735135 0 81.6242 0 0)
(0 0.000736937 0 81.586 0 0)
(0 0.000738739 0 81.5478 0 0)
(0 0.000740541 0 81.5097 0 0)
(0 0.000742342 0 81.4716 0 0)
(0 0.000744144 0 81.4335 0 0)
(0 0.000745946 0 81.3955 0 0)
(0 0.000747748 0 81.3575 0 0)
(0 0.00074955 0 81.3195 0 0)
(0 0.000751351 0 81.2816 0 0)
(0 0.000753153 0 81.2436 0 0)
(0 0.000754955 0 81.2057 0 0)
(0 0.000756757 0 81.1679 0 0)
(0 0.000758559 0 81.1301 0 0)
(0 0.00076036 0 81.0923 0 0)
(0 0.000762162 0 81.0545 0 0)
(0 0.000763964 0 81.0168 0 0)
(0 0.000765766 0 80.9791 0 0)
(0 0.000767568 0 80.9414 0 0)
(0 0.000769369 0 80.9037 0 0)
(0 0.000771171 0 80.8661 0 0)
(0 0.000772973 0 80.8286 0 0)
(0 0.000774775 0 80.791 0 0)
(0 0.000776577 0 80.7535 0 0)
(0 0.000778378 0 80.716 0 0)
(0 0.00078018 0 80.6786 0 0)
(0 0.000781982 0 80.6412 0 0)
(0 0.000783784 0 80.6038 0 0)
(0 0.000785586 0 80.5665 0 0)
(0 0.000787387 0 80.5292 0 0)
(0 0.000789189 0 80.4919 0 0)
(0 0.000790991 0 80.4546 0 0)
(0 0.000792793 0 80.4174 0 0)
(0 0.000794595 0 80.3803 0 0)
(0 0.000796396 0 80.3431 0 0)
(0 0.000798198 0 80.306 0 0)
(0 0.0008 0 80.269 0 0)
(0 0.000801802 0 80.2319 0 0)
(0 0.000803604 0 80.1949 0 0)
(0 0.000805405 0 80.158 0 0)
(0 0.000807207 0 80.121 0 0)
(0 0.000809009 0 80.0841 0 0)
(0 0.000810811 0 80.0473 0 0)
(0 0.000812613 0 80.0105 0 0)
(0 0.000814414 0 79.9737 0 0)
(0 0.000816216 0 79.9369 0 0)
(0 0.000818018 0 79.9002 0 0)
(0 0.00081982 0 79.8635 0 0)
(0 0.000821622 0 79.8269 0 0)
(0 0.000823423 0 79.7903 0 0)
(0 0.000825225 0 79.7537 0 0)
(0 0.000827027 0 79.7172 0 0)
(0 0.000828829 0 79.6807 0 0)
(0 0.000830631 0 79.6443 0 0)
(0 0.000832432 0 79.6078 0 0)
(0 0.000834234 0 79.5715 0 0)
(0 0.000836036 0 79.5351 0 0)
(0 0.000837838 0 79.4988 0 0)
(0 0.00083964 0 79.4626 0 0)
(0 0.000841441 0 79.4263 0 0)
(0 0.000843243 0 79.3902 0 0)
(0 0.000845045 0 79.354 0 0)
(0 0.000846847 0 79.3179 0 0)
(0 0.000848649 0 79.2818 0 0)
(0 0.00085045 0 79.2458 0 0)
(0 0.000852252 0 79.2098 0 0)
(0 0.000854054 0 79.1739 0 0)
(0 0.000855856 0 79.138 0 0)
(0 0.000857658 0 79.1021 0 0)
(0 0.000859459 0 79.0663 0 0)
(0 0.000861261 0 79.0305 0 0)
(0 0.000863063 0 78.9947 0 0)
(0 0.000864865 0 78.959 0 0)
(0 0.000866667 0 78.9233 0 0)
(0 0.000868468 0 78.8877 0 0)
(0 0.00087027 0 78.8521 0 0)
(0 0.000872072 0 78.8166 0 0)
(0 0.000873874 0 78.7811 0 0)
(0 0.000875676 0 78.7456 0 0)
(0 0.000877477 0 78.7102 0 0)
(0 0.000879279 0 78.6748 0 0)
(0 0.000881081 0 78.6395 0 0)
(0 0.000882883 0 78.6042 0 0)
(0 0.000884685 0 78.5689 0 0)
(0 0.000886486 0 78.5337 0 0)
(0 0.000888288 0 78.4986 0 0)
(0 0.00089009 0 78.4634 0 0)
(0 0.000891892 0 78.4284 0 0)
(0 0.000893694 0 78.3933 0 0)
(0 0.000895495 0 78.3583 0 0)
(0 0.000897297 0 78.3234 0 0)
(0 0.000899099 0 78.2885 0 0)
(0 0.000900901 0 78.2536 0 0)
(0 0.000902703 0 78.2188 0 0)
(0 0.000904505 0 78.184 0 0)
(0 0.000906306 0 78.1493 0 0)
(0 0.000908108 0 78.1146 0 0)
(0 0.00090991 0 78.08 0 0)
(0 0.000911712 0 78.0454 0 0)
(0 0.000913514 0 78.0108 0 0)
(0 0.000915315 0 77.9763 0 0)
(0 0.000917117 0 77.9419 0 0)
(0 0.000918919 0 77.9075 0 0)
(0 0.000920721 0 77.8731 0 0)
(0 0.000922523 0 77.8388 0 0)
(0 0.000924324 0 77.8045 0 0)
(0 0.000926126 0 77.7703 0 0)
(0 0.000927928 0 77.7361 0 0)
(0 0.00092973 0 77.7019 0 0)
(0 0.000931532 0 77.6678 0 0)
(0 0.000933333 0 77.6338 0 0)
(0 0.000935135 0 77.5998 0 0)
(0 0.000936937 0 77.5658 0 0)
(0 0.000938739 0 77.5319 0 0)
(0 0.000940541 0 77.4981 0 0)
(0 0.000942342 0 77.4643 0 0)
(0 0.000944144 0 77.4305 0 0)
(0 0.000945946 0 77.3968 0 0)
(0 0.000947748 0 77.3631 0 0)
(0 0.00094955 0 77.3295 0 0)
(0 0.000951351 0 77.296 0 0)
(0 0.000953153 0 77.2624 0 0)
(0 0.000954955 0 77.229 0 0)
(0 0.000956757 0 77.1956 0 0)
(0 0.000958559 0 77.1622 0 0)
(0 0.00096036 0 77.1289 0 0)
(0 0.000962162 0 77.0956 0 0)
(0 0.000963964 0 77.0624 0 0)
(0 0.000965766 0 77.0292 0 0)
(0 0.000967568 0 76.9961 0 0)
(0 0.000969369 0 76.963 0 0)
(0 0.000971171 0 76.93 0 0)
(0 0.000972973 0 76.897 0 0)
(0 0.000974775 0 76.8641 0 0)
(0 0.000976577 0 76.8312 0 0)
(0 0.000978378 0 76.7984 0 0)
(0 0.00098018 0 76.7656 0 0)
(0 0.000981982 0 76.7329 0 0)
(0 0.000983784 0 76.7002 0 0)
(0 0.000985586 0 76.6676 0 0)
(0 0.000987387 0 76.635 0 0)
(0 0.000989189 0 76.6025 0 0)
(0 0.000990991 0 76.5701 0 0)
(0 0.000992793 0 76.5376 0 0)
(0 0.000994595 0 76.5053 0 0)
(0 0.000996396 0 76.473 0 0)
(0 0.000998198 0 76.4407 0 0)
(0 0.001 0 76.4085 0 0)
(0 0.0010018 0 76.3764 0 0)
(0 0.0010036 0 76.3443 0 0)
(0 0.00100541 0 76.3122 0 0)
(0 0.00100721 0 76.2802 0 0)
(0 0.00100901 0 76.2482 0 0)
(0 0.00101081 0 76.2163 0 0)
(0 0.00101261 0 76.1844 0 0)
(0 0.00101441 0 76.1525 0 0)
(0 0.00101622 0 76.1206 0 0)
(0 0.00101802 0 76.0887 0 0)
(0 0.00101982 0 76.0568 0 0)
(0 0.00102162 0 76.025 0 0)
(0 0.00102342 0 75.9931 0 0)
(0 0.00102523 0 75.9612 0 0)
(0 0.00102703 0 75.9293 0 0)
(0 0.00102883 0 75.8974 0 0)
(0 0.00103063 0 75.8655 0 0)
(0 0.00103243 0 75.8336 0 0)
(0 0.00103423 0 75.8016 0 0)
(0 0.00103604 0 75.7696 0 0)
(0 0.00103784 0 75.7375 0 0)
(0 0.00103964 0 75.7055 0 0)
(0 0.00104144 0 75.6733 0 0)
(0 0.00104324 0 75.6411 0 0)
(0 0.00104505 0 75.6089 0 0)
(0 0.00104685 0 75.5766 0 0)
(0 0.00104865 0 75.5442 0 0)
(0 0.00105045 0 75.5118 0 0)
(0 0.00105225 0 75.4792 0 0)
(0 0.00105405 0 75.4467 0 0)
(0 0.00105586 0 75.414 0 0)
(0 0.00105766 0 75.3812 0 0)
(0 0.00105946 0 75.3483 0 0)
(0 0.00106126 0 75.3154 0 0)
(0 0.00106306 0 75.2823 0 0)
(0 0.00106486 0 75.2491 0 0)
(0 0.00106667 0 75.2159 0 0)
(0 0.00106847 0 75.1825 0 0)
(0 0.00107027 0 75.1489 0 0)
(0 0.00107207 0 75.1153 0 0)
(0 0.00107387 0 75.0815 0 0)
(0 0.00107568 0 75.0476 0 0)
(0 0.00107748 0 75.0136 0 0)
(0 0.00107928 0 74.9794 0 0)
(0 0.00108108 0 74.945 0 0)
(0 0.00108288 0 74.9106 0 0)
(0 0.00108468 0 74.8759 0 0)
(0 0.00108649 0 74.8411 0 0)
(0 0.00108829 0 74.8061 0 0)
(0 0.00109009 0 74.771 0 0)
(0 0.00109189 0 74.7357 0 0)
(0 0.00109369 0 74.7002 0 0)
(0 0.0010955 0 74.6645 0 0)
(0 0.0010973 0 74.6286 0 0)
(0 0.0010991 0 74.5925 0 0)
(0 0.0011009 0 74.5563 0 0)
(0 0.0011027 0 74.5198 0 0)
(0 0.0011045 0 74.4831 0 0)
(0 0.00110631 0 74.4462 0 0)
(0 0.00110811 0 74.4091 0 0)
(0 0.00110991 0 74.3718 0 0)
(0 0.00111171 0 74.3342 0 0)
(0 0.00111351 0 74.2965 0 0)
(0 0.00111532 0 74.2584 0 0)
(0 0.00111712 0 74.2202 0 0)
(0 0.00111892 0 74.1817 0 0)
(0 0.00112072 0 74.1429 0 0)
(0 0.00112252 0 74.1039 0 0)
(0 0.00112432 0 74.0647 0 0)
(0 0.00112613 0 74.0252 0 0)
(0 0.00112793 0 73.9854 0 0)
(0 0.00112973 0 73.9453 0 0)
(0 0.00113153 0 73.905 0 0)
(0 0.00113333 0 73.8644 0 0)
(0 0.00113514 0 73.8235 0 0)
(0 0.00113694 0 73.7823 0 0)
(0 0.00113874 0 73.7408 0 0)
(0 0.00114054 0 73.699 0 0)
(0 0.00114234 0 73.6569 0 0)
(0 0.00114414 0 73.6145 0 0)
(0 0.00114595 0 73.5718 0 0)
(0 0.00114775 0 73.5288 0 0)
(0 0.00114955 0 73.4854 0 0)
(0 0.00115135 0 73.4418 0 0)
(0 0.00115315 0 73.3978 0 0)
(0 0.00115495 0 73.3534 0 0)
(0 0.00115676 0 73.3088 0 0)
(0 0.00115856 0 73.2637 0 0)
(0 0.00116036 0 73.2184 0 0)
(0 0.00116216 0 73.1726 0 0)
(0 0.00116396 0 73.1266 0 0)
(0 0.00116577 0 73.0801 0 0)
(0 0.00116757 0 73.0333 0 0)
(0 0.00116937 0 72.9861 0 0)
(0 0.00117117 0 72.9386 0 0)
(0 0.00117297 0 72.8906 0 0)
(0 0.00117477 0 72.8423 0 0)
(0 0.00117658 0 72.7936 0 0)
(0 0.00117838 0 72.7445 0 0)
(0 0.00118018 0 72.695 0 0)
(0 0.00118198 0 72.645 0 0)
(0 0.00118378 0 72.5947 0 0)
(0 0.00118559 0 72.544 0 0)
(0 0.00118739 0 72.4928 0 0)
(0 0.00118919 0 72.4413 0 0)
(0 0.00119099 0 72.3893 0 0)
(0 0.00119279 0 72.3368 0 0)
(0 0.00119459 0 72.284 0 0)
(0 0.0011964 0 72.2306 0 0)
(0 0.0011982 0 72.1769 0 0)
(0 0.0012 0 72.1227 0 0)
(0 0.0012018 0 72.068 0 0)
(0 0.0012036 0 72.0129 0 0)
(0 0.00120541 0 71.9573 0 0)
(0 0.00120721 0 71.9013 0 0)
(0 0.00120901 0 71.8448 0 0)
(0 0.00121081 0 71.7878 0 0)
(0 0.00121261 0 71.7303 0 0)
(0 0.00121441 0 71.6723 0 0)
(0 0.00121622 0 71.6139 0 0)
(0 0.00121802 0 71.5549 0 0)
(0 0.00121982 0 71.4955 0 0)
(0 0.00122162 0 71.4356 0 0)
(0 0.00122342 0 71.3751 0 0)
(0 0.00122523 0 71.3141 0 0)
(0 0.00122703 0 71.2526 0 0)
(0 0.00122883 0 71.1906 0 0)
(0 0.00123063 0 71.1281 0 0)
(0 0.00123243 0 71.065 0 0)
(0 0.00123423 0 71.0014 0 0)
(0 0.00123604 0 70.9372 0 0)
(0 0.00123784 0 70.8725 0 0)
(0 0.00123964 0 70.8073 0 0)
(0 0.00124144 0 70.7415 0 0)
(0 0.00124324 0 70.6751 0 0)
(0 0.00124505 0 70.6082 0 0)
(0 0.00124685 0 70.5407 0 0)
(0 0.00124865 0 70.4727 0 0)
(0 0.00125045 0 70.404 0 0)
(0 0.00125225 0 70.3348 0 0)
(0 0.00125405 0 70.265 0 0)
(0 0.00125586 0 70.1946 0 0)
(0 0.00125766 0 70.1236 0 0)
(0 0.00125946 0 70.052 0 0)
(0 0.00126126 0 69.9798 0 0)
(0 0.00126306 0 69.907 0 0)
(0 0.00126486 0 69.8336 0 0)
(0 0.00126667 0 69.7595 0 0)
(0 0.00126847 0 69.6849 0 0)
(0 0.00127027 0 69.6096 0 0)
(0 0.00127207 0 69.5337 0 0)
(0 0.00127387 0 69.4571 0 0)
(0 0.00127568 0 69.3799 0 0)
(0 0.00127748 0 69.3021 0 0)
(0 0.00127928 0 69.2236 0 0)
(0 0.00128108 0 69.1444 0 0)
(0 0.00128288 0 69.0646 0 0)
(0 0.00128468 0 68.9841 0 0)
(0 0.00128649 0 68.903 0 0)
(0 0.00128829 0 68.8211 0 0)
(0 0.00129009 0 68.7387 0 0)
(0 0.00129189 0 68.6555 0 0)
(0 0.00129369 0 68.5716 0 0)
(0 0.0012955 0 68.4871 0 0)
(0 0.0012973 0 68.4018 0 0)
(0 0.0012991 0 68.3158 0 0)
(0 0.0013009 0 68.2292 0 0)
(0 0.0013027 0 68.1418 0 0)
(0 0.0013045 0 68.0537 0 0)
(0 0.00130631 0 67.9649 0 0)
(0 0.00130811 0 67.8754 0 0)
(0 0.00130991 0 67.7852 0 0)
(0 0.00131171 0 67.6942 0 0)
(0 0.00131351 0 67.6025 0 0)
(0 0.00131532 0 67.51 0 0)
(0 0.00131712 0 67.4168 0 0)
(0 0.00131892 0 67.3228 0 0)
(0 0.00132072 0 67.2281 0 0)
(0 0.00132252 0 67.1326 0 0)
(0 0.00132432 0 67.0364 0 0)
(0 0.00132613 0 66.9394 0 0)
(0 0.00132793 0 66.8416 0 0)
(0 0.00132973 0 66.743 0 0)
(0 0.00133153 0 66.6437 0 0)
(0 0.00133333 0 66.5436 0 0)
(0 0.00133514 0 66.4426 0 0)
(0 0.00133694 0 66.3409 0 0)
(0 0.00133874 0 66.2384 0 0)
(0 0.00134054 0 66.1351 0 0)
(0 0.00134234 0 66.0309 0 0)
(0 0.00134414 0 65.926 0 0)
(0 0.00134595 0 65.8202 0 0)
(0 0.00134775 0 65.7136 0 0)
(0 0.00134955 0 65.6062 0 0)
(0 0.00135135 0 65.4979 0 0)
(0 0.00135315 0 65.3888 0 0)
(0 0.00135495 0 65.2789 0 0)
(0 0.00135676 0 65.1681 0 0)
(0 0.00135856 0 65.0565 0 0)
(0 0.00136036 0 64.944 0 0)
(0 0.00136216 0 64.8306 0 0)
(0 0.00136396 0 64.7164 0 0)
(0 0.00136577 0 64.6013 0 0)
(0 0.00136757 0 64.4854 0 0)
(0 0.00136937 0 64.3685 0 0)
(0 0.00137117 0 64.2508 0 0)
(0 0.00137297 0 64.1322 0 0)
(0 0.00137477 0 64.0127 0 0)
(0 0.00137658 0 63.8923 0 0)
(0 0.00137838 0 63.771 0 0)
(0 0.00138018 0 63.6488 0 0)
(0 0.00138198 0 63.5257 0 0)
(0 0.00138378 0 63.4017 0 0)
(0 0.00138559 0 63.2767 0 0)
(0 0.00138739 0 63.1508 0 0)
(0 0.00138919 0 63.024 0 0)
(0 0.00139099 0 62.8963 0 0)
(0 0.00139279 0 62.7676 0 0)
(0 0.00139459 0 62.638 0 0)
(0 0.0013964 0 62.5074 0 0)
(0 0.0013982 0 62.3759 0 0)
(0 0.0014 0 62.2434 0 0)
(0 0.0014018 0 62.11 0 0)
(0 0.0014036 0 61.9756 0 0)
(0 0.00140541 0 61.8402 0 0)
(0 0.00140721 0 61.7039 0 0)
(0 0.00140901 0 61.5665 0 0)
(0 0.00141081 0 61.4282 0 0)
(0 0.00141261 0 61.2889 0 0)
(0 0.00141441 0 61.1486 0 0)
(0 0.00141622 0 61.0074 0 0)
(0 0.00141802 0 60.8651 0 0)
(0 0.00141982 0 60.7218 0 0)
(0 0.00142162 0 60.5775 0 0)
(0 0.00142342 0 60.4321 0 0)
(0 0.00142523 0 60.2858 0 0)
(0 0.00142703 0 60.1384 0 0)
(0 0.00142883 0 59.99 0 0)
(0 0.00143063 0 59.8406 0 0)
(0 0.00143243 0 59.6901 0 0)
(0 0.00143423 0 59.5386 0 0)
(0 0.00143604 0 59.3861 0 0)
(0 0.00143784 0 59.2324 0 0)
(0 0.00143964 0 59.0778 0 0)
(0 0.00144144 0 58.922 0 0)
(0 0.00144324 0 58.7652 0 0)
(0 0.00144505 0 58.6074 0 0)
(0 0.00144685 0 58.4484 0 0)
(0 0.00144865 0 58.2884 0 0)
(0 0.00145045 0 58.1273 0 0)
(0 0.00145225 0 57.9651 0 0)
(0 0.00145405 0 57.8018 0 0)
(0 0.00145586 0 57.6374 0 0)
(0 0.00145766 0 57.4719 0 0)
(0 0.00145946 0 57.3053 0 0)
(0 0.00146126 0 57.1376 0 0)
(0 0.00146306 0 56.9688 0 0)
(0 0.00146486 0 56.7989 0 0)
(0 0.00146667 0 56.6278 0 0)
(0 0.00146847 0 56.4556 0 0)
(0 0.00147027 0 56.2823 0 0)
(0 0.00147207 0 56.1078 0 0)
(0 0.00147387 0 55.9322 0 0)
(0 0.00147568 0 55.7554 0 0)
(0 0.00147748 0 55.5775 0 0)
(0 0.00147928 0 55.3984 0 0)
(0 0.00148108 0 55.2182 0 0)
(0 0.00148288 0 55.0368 0 0)
(0 0.00148468 0 54.8542 0 0)
(0 0.00148649 0 54.6704 0 0)
(0 0.00148829 0 54.4855 0 0)
(0 0.00149009 0 54.2994 0 0)
(0 0.00149189 0 54.1121 0 0)
(0 0.00149369 0 53.9236 0 0)
(0 0.0014955 0 53.7339 0 0)
(0 0.0014973 0 53.543 0 0)
(0 0.0014991 0 53.3509 0 0)
(0 0.0015009 0 53.1576 0 0)
(0 0.0015027 0 52.963 0 0)
(0 0.0015045 0 52.7673 0 0)
(0 0.00150631 0 52.5703 0 0)
(0 0.00150811 0 52.3721 0 0)
(0 0.00150991 0 52.1726 0 0)
(0 0.00151171 0 51.9719 0 0)
(0 0.00151351 0 51.77 0 0)
(0 0.00151532 0 51.5668 0 0)
(0 0.00151712 0 51.3624 0 0)
(0 0.00151892 0 51.1567 0 0)
(0 0.00152072 0 50.9498 0 0)
(0 0.00152252 0 50.7415 0 0)
(0 0.00152432 0 50.532 0 0)
(0 0.00152613 0 50.3213 0 0)
(0 0.00152793 0 50.1092 0 0)
(0 0.00152973 0 49.8959 0 0)
(0 0.00153153 0 49.6813 0 0)
(0 0.00153333 0 49.4653 0 0)
(0 0.00153514 0 49.2481 0 0)
(0 0.00153694 0 49.0296 0 0)
(0 0.00153874 0 48.8098 0 0)
(0 0.00154054 0 48.5886 0 0)
(0 0.00154234 0 48.3662 0 0)
(0 0.00154414 0 48.1424 0 0)
(0 0.00154595 0 47.9173 0 0)
(0 0.00154775 0 47.6909 0 0)
(0 0.00154955 0 47.4631 0 0)
(0 0.00155135 0 47.234 0 0)
(0 0.00155315 0 47.0035 0 0)
(0 0.00155495 0 46.7717 0 0)
(0 0.00155676 0 46.5386 0 0)
(0 0.00155856 0 46.304 0 0)
(0 0.00156036 0 46.0682 0 0)
(0 0.00156216 0 45.8309 0 0)
(0 0.00156396 0 45.5923 0 0)
(0 0.00156577 0 45.3523 0 0)
(0 0.00156757 0 45.1109 0 0)
(0 0.00156937 0 44.8681 0 0)
(0 0.00157117 0 44.624 0 0)
(0 0.00157297 0 44.3784 0 0)
(0 0.00157477 0 44.1315 0 0)
(0 0.00157658 0 43.8831 0 0)
(0 0.00157838 0 43.6334 0 0)
(0 0.00158018 0 43.3822 0 0)
(0 0.00158198 0 43.1296 0 0)
(0 0.00158378 0 42.8756 0 0)
(0 0.00158559 0 42.6202 0 0)
(0 0.00158739 0 42.3633 0 0)
(0 0.00158919 0 42.105 0 0)
(0 0.00159099 0 41.8452 0 0)
(0 0.00159279 0 41.5841 0 0)
(0 0.00159459 0 41.3214 0 0)
(0 0.0015964 0 41.0573 0 0)
(0 0.0015982 0 40.7918 0 0)
(0 0.0016 0 40.5247 0 0)
(0 0.0016018 0 40.2563 0 0)
(0 0.0016036 0 39.9863 0 0)
(0 0.00160541 0 39.7149 0 0)
(0 0.00160721 0 39.4419 0 0)
(0 0.00160901 0 39.1675 0 0)
(0 0.00161081 0 38.8917 0 0)
(0 0.00161261 0 38.6143 0 0)
(0 0.00161441 0 38.3354 0 0)
(0 0.00161622 0 38.055 0 0)
(0 0.00161802 0 37.7731 0 0)
(0 0.00161982 0 37.4897 0 0)
(0 0.00162162 0 37.2047 0 0)
(0 0.00162342 0 36.9183 0 0)
(0 0.00162523 0 36.6303 0 0)
(0 0.00162703 0 36.3408 0 0)
(0 0.00162883 0 36.0497 0 0)
(0 0.00163063 0 35.7571 0 0)
(0 0.00163243 0 35.463 0 0)
(0 0.00163423 0 35.1673 0 0)
(0 0.00163604 0 34.8701 0 0)
(0 0.00163784 0 34.5713 0 0)
(0 0.00163964 0 34.2709 0 0)
(0 0.00164144 0 33.969 0 0)
(0 0.00164324 0 33.6655 0 0)
(0 0.00164505 0 33.3604 0 0)
(0 0.00164685 0 33.0537 0 0)
(0 0.00164865 0 32.7454 0 0)
(0 0.00165045 0 32.4356 0 0)
(0 0.00165225 0 32.1242 0 0)
(0 0.00165405 0 31.8111 0 0)
(0 0.00165586 0 31.4965 0 0)
(0 0.00165766 0 31.1802 0 0)
(0 0.00165946 0 30.8624 0 0)
(0 0.00166126 0 30.5429 0 0)
(0 0.00166306 0 30.2218 0 0)
(0 0.00166486 0 29.899 0 0)
(0 0.00166667 0 29.5747 0 0)
(0 0.00166847 0 29.2486 0 0)
(0 0.00167027 0 28.921 0 0)
(0 0.00167207 0 28.5917 0 0)
(0 0.00167387 0 28.2608 0 0)
(0 0.00167568 0 27.9282 0 0)
(0 0.00167748 0 27.5939 0 0)
(0 0.00167928 0 27.258 0 0)
(0 0.00168108 0 26.9204 0 0)
(0 0.00168288 0 26.5811 0 0)
(0 0.00168468 0 26.2402 0 0)
(0 0.00168649 0 25.8975 0 0)
(0 0.00168829 0 25.5532 0 0)
(0 0.00169009 0 25.2072 0 0)
(0 0.00169189 0 24.8595 0 0)
(0 0.00169369 0 24.5101 0 0)
(0 0.0016955 0 24.159 0 0)
(0 0.0016973 0 23.8062 0 0)
(0 0.0016991 0 23.4517 0 0)
(0 0.0017009 0 23.0954 0 0)
(0 0.0017027 0 22.7374 0 0)
(0 0.0017045 0 22.3777 0 0)
(0 0.00170631 0 22.0163 0 0)
(0 0.00170811 0 21.6531 0 0)
(0 0.00170991 0 21.2882 0 0)
(0 0.00171171 0 20.9216 0 0)
(0 0.00171351 0 20.5531 0 0)
(0 0.00171532 0 20.183 0 0)
(0 0.00171712 0 19.8111 0 0)
(0 0.00171892 0 19.4374 0 0)
(0 0.00172072 0 19.0619 0 0)
(0 0.00172252 0 18.6847 0 0)
(0 0.00172432 0 18.3056 0 0)
(0 0.00172613 0 17.9249 0 0)
(0 0.00172793 0 17.5423 0 0)
(0 0.00172973 0 17.1579 0 0)
(0 0.00173153 0 16.7717 0 0)
(0 0.00173333 0 16.3837 0 0)
(0 0.00173514 0 15.994 0 0)
(0 0.00173694 0 15.6024 0 0)
(0 0.00173874 0 15.209 0 0)
(0 0.00174054 0 14.8137 0 0)
(0 0.00174234 0 14.4167 0 0)
(0 0.00174414 0 14.0178 0 0)
(0 0.00174595 0 13.6171 0 0)
(0 0.00174775 0 13.2146 0 0)
(0 0.00174955 0 12.8102 0 0)
(0 0.00175135 0 12.4039 0 0)
(0 0.00175315 0 11.9958 0 0)
(0 0.00175495 0 11.5859 0 0)
(0 0.00175676 0 11.1741 0 0)
(0 0.00175856 0 10.7604 0 0)
(0 0.00176036 0 10.3449 0 0)
(0 0.00176216 0 9.92746 0 0)
(0 0.00176396 0 9.50817 0 0)
(0 0.00176577 0 9.08699 0 0)
(0 0.00176757 0 8.66392 0 0)
(0 0.00176937 0 8.23896 0 0)
(0 0.00177117 0 7.81211 0 0)
(0 0.00177297 0 7.38335 0 0)
(0 0.00177477 0 6.95269 0 0)
(0 0.00177658 0 6.52012 0 0)
(0 0.00177838 0 6.08563 0 0)
(0 0.00178018 0 5.64922 0 0)
(0 0.00178198 0 5.21088 0 0)
(0 0.00178378 0 4.77062 0 0)
(0 0.00178559 0 4.32842 0 0)
(0 0.00178739 0 3.88429 0 0)
(0 0.00178919 0 3.43821 0 0)
(0 0.00179099 0 2.99018 0 0)
(0 0.00179279 0 2.54021 0 0)
(0 0.00179459 0 2.08827 0 0)
(0 0.0017964 0 1.63438 0 0)
(0 0.0017982 0 1.17852 0 0)
(0 0.0018 0 0 0 0)
(0 0.00227347 0 0 0 0)
(0 0.00274694 0 0 0 0)
(0 0.00322041 0 0 0 0)
(0 0.00369388 0 0 0 0)
(0 0.00416735 0 0 0 0)
(0 0.00464082 0 0 0 0)
(0 0.00511429 0 0 0 0)
(0 0.00558776 0 0 0 0)
(0 0.00606122 0 0 0 0)
(0 0.00653469 0 0 0 0)
(0 0.00700816 0 0 0 0)
(0 0.00748163 0 0 0 0)
(0 0.0079551 0 0 0 0)
(0 0.00842857 0 0 0 0)
(0 0.00890204 0 0 0 0)