FoamFile
{
    version         2.0;
    format          ascii;
    class           scalarAverageField;
    object          epsilon;
    note            "Computed assuming turbulence in equilibirum";
}

// * * * * * * * * * * * * * * * * * * * * * * * * * * * * * * * * * * * * * //

// average
0

// data
(
    126697
    126820
    126944
    127068
    127193
    127318
    127444
    127570
    127697
    127824
    127952
    128080
    128208
    128337
    128467
    128597
    128727
    128858
    128989
    129121
    129253
    129386
    129519
    129653
    129787
    129922
    130057
    130193
    130329
    130465
    130602
    130740
    130878
    131017
    131156
    131295
    131435
    131576
    131717
    131859
    132001
    132143
    132286
    132430
    132574
    132719
    132864
    133009
    133155
    133302
    133449
    133597
    133745
    133894
    134043
    134193
    134343
    134494
    134646
    134798
    134950
    135103
    135256
    135411
    135565
    135720
    135876
    136032
    136189
    136346
    136504
    136663
    136822
    136981
    137141
    137302
    137463
    137625
    137787
    137950
    138114
    138278
    138442
    138607
    138773
    138940
    139106
    139274
    139442
    139611
    139780
    139950
    140120
    140291
    140463
    140635
    140808
    140981
    141155
    141330
    141505
    141681
    141857
    142034
    142212
    142390
    142569
    142748
    142928
    143109
    143290
    143472
    143655
    143838
    144022
    144206
    144391
    144577
    144764
    144951
    145138
    145327
    145516
    145705
    145895
    146086
    146278
    146470
    146663
    146857
    147051
    147246
    147441
    147637
    147834
    148032
    148230
    148429
    148629
    148829
    149030
    149232
    149434
    149637
    149841
    150045
    150250
    150456
    150663
    150870
    151078
    151287
    151496
    151706
    151917
    152129
    152341
    152554
    152768
    152982
    153197
    153413
    153630
    153847
    154066
    154284
    154504
    154725
    154946
    155168
    155390
    155614
    155838
    156063
    156289
    156515
    156743
    156971
    157199
    157429
    157660
    157891
    158123
    158356
    158589
    158824
    159059
    159295
    159532
    159769
    160008
    160247
    160487
    160728
    160970
    161212
    161456
    161700
    161945
    162191
    162438
    162685
    162934
    163183
    163433
    163684
    163936
    164189
    164442
    164697
    164952
    165209
    165466
    165724
    165983
    166242
    166503
    166765
    167027
    167290
    167555
    167820
    168086
    168353
    168621
    168890
    169160
    169431
    169702
    169975
    170248
    170523
    170798
    171075
    171352
    171630
    171910
    172190
    172471
    172753
    173036
    173321
    173606
    173892
    174179
    174467
    174756
    175046
    175337
    175630
    175923
    176217
    176512
    176808
    177106
    177404
    177703
    178004
    178305
    178607
    178911
    179216
    179521
    179828
    180136
    180445
    180754
    181066
    181378
    181691
    182005
    182321
    182637
    182955
    183273
    183593
    183914
    184236
    184560
    184884
    185209
    185536
    185864
    186193
    186523
    186854
    187187
    187520
    187855
    188191
    188528
    188867
    189206
    189547
    189889
    190232
    190577
    190922
    191269
    191617
    191967
    192317
    192669
    193022
    193376
    193732
    194089
    194447
    194806
    195167
    195529
    195892
    196257
    196623
    196990
    197358
    197728
    198099
    198472
    198846
    199221
    199597
    199975
    200354
    200735
    201117
    201500
    201885
    202271
    202659
    203047
    203438
    203830
    204223
    204617
    205013
    205411
    205810
    206210
    206612
    207015
    207420
    207826
    208234
    208643
    209053
    209466
    209879
    210295
    210711
    211129
    211549
    211971
    212393
    212818
    213244
    213671
    214100
    214531
    214964
    215397
    215833
    216270
    216709
    217149
    217591
    218035
    218480
    218927
    219375
    219826
    220278
    220731
    221187
    221644
    222102
    222563
    223025
    223489
    223954
    224422
    224891
    225362
    225835
    226309
    226785
    227263
    227743
    228225
    228708
    229193
    229681
    230170
    230660
    231153
    231648
    232144
    232642
    233143
    233645
    234149
    234655
    235163
    235673
    236185
    236698
    237214
    237732
    238252
    238773
    239297
    239823
    240351
    240880
    241412
    241946
    242482
    243020
    243561
    244103
    244647
    245194
    245742
    246293
    246846
    247401
    247958
    248518
    249080
    249643
    250210
    250778
    251348
    251921
    252496
    253073
    253653
    254235
    254819
    255406
    255995
    256586
    257179
    257775
    258373
    258974
    259577
    260183
    260791
    261401
    262014
    262629
    263247
    263867
    264490
    265115
    265743
    266373
    267006
    267641
    268279
    268920
    269563
    270209
    270857
    271508
    272162
    272819
    273478
    274140
    274804
    275472
    276142
    276814
    277490
    278168
    278850
    279534
    280220
    280910
    281603
    282298
    282996
    283698
    284402
    285109
    285819
    286532
    287248
    287967
    288690
    289415
    290143
    290874
    291609
    292346
    293087
    293831
    294578
    295328
    296081
    296838
    297597
    298360
    299127
    299896
    300669
    301446
    302225
    303008
    303794
    304584
    305377
    306174
    306974
    307778
    308585
    309395
    310210
    311027
    311849
    312674
    313502
    314334
    315170
    316010
    316853
    317700
    318551
    319405
    320264
    321126
    321992
    322862
    323736
    324614
    325495
    326381
    327270
    328164
    329062
    329964
    330869
    331779
    332693
    333612
    334534
    335461
    336392
    337327
    338266
    339210
    340158
    341111
    342067
    343029
    343994
    344965
    345939
    346919
    347903
    348891
    349884
    350882
    351884
    352892
    353903
    354920
    355942
    356968
    357999
    359035
    360076
    361122
    362173
    363229
    364290
    365356
    366428
    367504
    368586
    369673
    370765
    371862
    372965
    374073
    375187
    376306
    377431
    378561
    379696
    380837
    381984
    383137
    384295
    385459
    386628
    387804
    388985
    390173
    391366
    392565
    393770
    394982
    396199
    397423
    398653
    399889
    401131
    402380
    403635
    404896
    406164
    407439
    408720
    410007
    411302
    412603
    413910
    415225
    416546
    417875
    419210
    420552
    421901
    423258
    424621
    425992
    427370
    428756
    430148
    431548
    432956
    434371
    435794
    437224
    438662
    440108
    441562
    443024
    444493
    445971
    447456
    448950
    450452
    451962
    453481
    455008
    456543
    458087
    459640
    461201
    462771
    464349
    465937
    467533
    469139
    470753
    472377
    474010
    475652
    477304
    478965
    480635
    482315
    484005
    485705
    487414
    489133
    490863
    492602
    494352
    496112
    497882
    499662
    501454
    503255
    505068
    506891
    508725
    510570
    512426
    514294
    516172
    518062
    519964
    521877
    523801
    525738
    527686
    529646
    531618
    533603
    535599
    537608
    539630
    541664
    543711
    545771
    547844
    549930
    552029
    554141
    556267
    558407
    560560
    562727
    564908
    567103
    569312
    571535
    573773
    576026
    578293
    580576
    582873
    585186
    587514
    589857
    592216
    594591
    596982
    599388
    601811
    604251
    606707
    609180
    611670
    614176
    616700
    619242
    621801
    624378
    626973
    629586
    632217
    634867
    637535
    640223
    642929
    645655
    648400
    651165
    653950
    656756
    659581
    662427
    665294
    668181
    671091
    674021
    676973
    679947
    682943
    685962
    689004
    692068
    695155
    698266
    701401
    704559
    707742
    710949
    714181
    717439
    720721
    724029
    727363
    730724
    734111
    737525
    740966
    744434
    747931
    751455
    755008
    758590
    762201
    765842
    769513
    773214
    776946
    780708
    784502
    788328
    792187
    796077
    800001
    803959
    807950
    811976
    816036
    820131
    824263
    828430
    832634
    836875
    841154
    845471
    849826
    854221
    858655
    863130
    867645
    872201
    876800
    881441
    886125
    890852
    895624
    900441
    905303
    910211
    915166
    920169
    925220
    930320
    935469
    940669
    945920
    951223
    956578
    961987
    967450
    972968
    978542
    984173
    989861
    995608
    1.00141e+06
    1.00728e+06
    1.01321e+06
    1.0192e+06
    1.02525e+06
    1.03137e+06
    1.03755e+06
    1.0438e+06
    1.05012e+06
    1.05651e+06
    1.06296e+06
    1.06949e+06
    1.07609e+06
    1.08276e+06
    1.08951e+06
    1.09633e+06
    1.10323e+06
    1.11021e+06
    1.11726e+06
    1.1244e+06
    1.13162e+06
    1.13893e+06
    1.14632e+06
    1.1538e+06
    1.16137e+06
    1.16902e+06
    1.17677e+06
    1.18462e+06
    1.19256e+06
    1.20059e+06
    1.20873e+06
    1.21696e+06
    1.2253e+06
    1.23374e+06
    1.24229e+06
    1.25095e+06
    1.25972e+06
    1.2686e+06
    1.2776e+06
    1.28672e+06
    1.29595e+06
    1.30531e+06
    1.3148e+06
    1.32441e+06
    1.33415e+06
    1.34402e+06
    1.35403e+06
    1.36418e+06
    1.37447e+06
    1.38491e+06
    1.39549e+06
    1.40622e+06
    1.41711e+06
    1.42816e+06
    1.43936e+06
    1.45073e+06
    1.46227e+06
    1.47399e+06
    1.48588e+06
    1.49794e+06
    1.5102e+06
    1.52264e+06
    1.53528e+06
    1.54812e+06
    1.56115e+06
    1.5744e+06
    1.58786e+06
    1.60154e+06
    1.61544e+06
    1.62957e+06
    1.64394e+06
    1.65855e+06
    1.67341e+06
    1.68852e+06
    1.7039e+06
    1.71954e+06
    1.73546e+06
    1.75166e+06
    1.76815e+06
    1.78494e+06
    1.80204e+06
    1.81946e+06
    1.8372e+06
    1.85527e+06
    1.87369e+06
    1.89247e+06
    1.91161e+06
    1.93113e+06
    1.95103e+06
    1.97134e+06
    1.99206e+06
    2.0132e+06
    2.03479e+06
    2.05682e+06
    2.07933e+06
    2.10232e+06
    2.12581e+06
    2.14982e+06
    2.17436e+06
    2.19946e+06
    2.22513e+06
    2.2514e+06
    2.27828e+06
    2.3058e+06
    2.33398e+06
    2.36284e+06
    2.39242e+06
    2.42274e+06
    2.45383e+06
    2.48572e+06
    2.51844e+06
    2.55202e+06
    2.58651e+06
    2.62194e+06
    2.65835e+06
    2.69578e+06
    2.73427e+06
    2.77389e+06
    2.81467e+06
    2.85667e+06
    2.89995e+06
    2.94456e+06
    2.99058e+06
    3.03808e+06
    3.08712e+06
    3.13779e+06
    3.19017e+06
    3.24435e+06
    3.30044e+06
    3.35853e+06
    3.41874e+06
    3.48119e+06
    3.54602e+06
    3.61336e+06
    3.68338e+06
    3.75623e+06
    3.8321e+06
    3.91119e+06
    3.99372e+06
    4.07991e+06
    4.17004e+06
    4.26438e+06
    4.36325e+06
    4.467e+06
    4.576e+06
    4.69068e+06
    4.81151e+06
    4.93901e+06
    5.07379e+06
    5.21649e+06
    5.36787e+06
    5.52876e+06
    5.70013e+06
    5.88307e+06
    6.07884e+06
    6.28889e+06
    6.5149e+06
    6.75881e+06
    7.02294e+06
    7.30999e+06
    7.62319e+06
    7.96644e+06
    8.34443e+06
    8.76293e+06
    9.22908e+06
    9.75181e+06
    1.03425e+07
    1.1016e+07
    1.17915e+07
    1.26953e+07
    1e-06
    126697
    126820
    126944
    127068
    127193
    127318
    127444
    127570
    127697
    127824
    127952
    128080
    128208
    128337
    128467
    128597
    128727
    128858
    128989
    129121
    129253
    129386
    129519
    129653
    129787
    129922
    130057
    130193
    130329
    130465
    130602
    130740
    130878
    131017
    131156
    131295
    131435
    131576
    131717
    131859
    132001
    132143
    132286
    132430
    132574
    132719
    132864
    133009
    133155
    133302
    133449
    133597
    133745
    133894
    134043
    134193
    134343
    134494
    134646
    134798
    134950
    135103
    135256
    135411
    135565
    135720
    135876
    136032
    136189
    136346
    136504
    136663
    136822
    136981
    137141
    137302
    137463
    137625
    137787
    137950
    138114
    138278
    138442
    138607
    138773
    138940
    139106
    139274
    139442
    139611
    139780
    139950
    140120
    140291
    140463
    140635
    140808
    140981
    141155
    141330
    141505
    141681
    141857
    142034
    142212
    142390
    142569
    142748
    142928
    143109
    143290
    143472
    143655
    143838
    144022
    144206
    144391
    144577
    144764
    144951
    145138
    145327
    145516
    145705
    145895
    146086
    146278
    146470
    146663
    146857
    147051
    147246
    147441
    147637
    147834
    148032
    148230
    148429
    148629
    148829
    149030
    149232
    149434
    149637
    149841
    150045
    150250
    150456
    150663
    150870
    151078
    151287
    151496
    151706
    151917
    152129
    152341
    152554
    152768
    152982
    153197
    153413
    153630
    153847
    154066
    154284
    154504
    154725
    154946
    155168
    155390
    155614
    155838
    156063
    156289
    156515
    156743
    156971
    157199
    157429
    157660
    157891
    158123
    158356
    158589
    158824
    159059
    159295
    159532
    159769
    160008
    160247
    160487
    160728
    160970
    161212
    161456
    161700
    161945
    162191
    162438
    162685
    162934
    163183
    163433
    163684
    163936
    164189
    164442
    164697
    164952
    165209
    165466
    165724
    165983
    166242
    166503
    166765
    167027
    167290
    167555
    167820
    168086
    168353
    168621
    168890
    169160
    169431
    169702
    169975
    170248
    170523
    170798
    171075
    171352
    171630
    171910
    172190
    172471
    172753
    173036
    173321
    173606
    173892
    174179
    174467
    174756
    175046
    175337
    175630
    175923
    176217
    176512
    176808
    177106
    177404
    177703
    178004
    178305
    178607
    178911
    179216
    179521
    179828
    180136
    180445
    180754
    181066
    181378
    181691
    182005
    182321
    182637
    182955
    183273
    183593
    183914
    184236
    184560
    184884
    185209
    185536
    185864
    186193
    186523
    186854
    187187
    187520
    187855
    188191
    188528
    188867
    189206
    189547
    189889
    190232
    190577
    190922
    191269
    191617
    191967
    192317
    192669
    193022
    193376
    193732
    194089
    194447
    194806
    195167
    195529
    195892
    196257
    196623
    196990
    197358
    197728
    198099
    198472
    198846
    199221
    199597
    199975
    200354
    200735
    201117
    201500
    201885
    202271
    202659
    203047
    203438
    203830
    204223
    204617
    205013
    205411
    205810
    206210
    206612
    207015
    207420
    207826
    208234
    208643
    209053
    209466
    209879
    210295
    210711
    211129
    211549
    211971
    212393
    212818
    213244
    213671
    214100
    214531
    214964
    215397
    215833
    216270
    216709
    217149
    217591
    218035
    218480
    218927
    219375
    219826
    220278
    220731
    221187
    221644
    222102
    222563
    223025
    223489
    223954
    224422
    224891
    225362
    225835
    226309
    226785
    227263
    227743
    228225
    228708
    229193
    229681
    230170
    230660
    231153
    231648
    232144
    232642
    233143
    233645
    234149
    234655
    235163
    235673
    236185
    236698
    237214
    237732
    238252
    238773
    239297
    239823
    240351
    240880
    241412
    241946
    242482
    243020
    243561
    244103
    244647
    245194
    245742
    246293
    246846
    247401
    247958
    248518
    249080
    249643
    250210
    250778
    251348
    251921
    252496
    253073
    253653
    254235
    254819
    255406
    255995
    256586
    257179
    257775
    258373
    258974
    259577
    260183
    260791
    261401
    262014
    262629
    263247
    263867
    264490
    265115
    265743
    266373
    267006
    267641
    268279
    268920
    269563
    270209
    270857
    271508
    272162
    272819
    273478
    274140
    274804
    275472
    276142
    276814
    277490
    278168
    278850
    279534
    280220
    280910
    281603
    282298
    282996
    283698
    284402
    285109
    285819
    286532
    287248
    287967
    288690
    289415
    290143
    290874
    291609
    292346
    293087
    293831
    294578
    295328
    296081
    296838
    297597
    298360
    299127
    299896
    300669
    301446
    302225
    303008
    303794
    304584
    305377
    306174
    306974
    307778
    308585
    309395
    310210
    311027
    311849
    312674
    313502
    314334
    315170
    316010
    316853
    317700
    318551
    319405
    320264
    321126
    321992
    322862
    323736
    324614
    325495
    326381
    327270
    328164
    329062
    329964
    330869
    331779
    332693
    333612
    334534
    335461
    336392
    337327
    338266
    339210
    340158
    341111
    342067
    343029
    343994
    344965
    345939
    346919
    347903
    348891
    349884
    350882
    351884
    352892
    353903
    354920
    355942
    356968
    357999
    359035
    360076
    361122
    362173
    363229
    364290
    365356
    366428
    367504
    368586
    369673
    370765
    371862
    372965
    374073
    375187
    376306
    377431
    378561
    379696
    380837
    381984
    383137
    384295
    385459
    386628
    387804
    388985
    390173
    391366
    392565
    393770
    394982
    396199
    397423
    398653
    399889
    401131
    402380
    403635
    404896
    406164
    407439
    408720
    410007
    411302
    412603
    413910
    415225
    416546
    417875
    419210
    420552
    421901
    423258
    424621
    425992
    427370
    428756
    430148
    431548
    432956
    434371
    435794
    437224
    438662
    440108
    441562
    443024
    444493
    445971
    447456
    448950
    450452
    451962
    453481
    455008
    456543
    458087
    459640
    461201
    462771
    464349
    465937
    467533
    469139
    470753
    472377
    474010
    475652
    477304
    478965
    480635
    482315
    484005
    485705
    487414
    489133
    490863
    492602
    494352
    496112
    497882
    499662
    501454
    503255
    505068
    506891
    508725
    510570
    512426
    514294
    516172
    518062
    519964
    521877
    523801
    525738
    527686
    529646
    531618
    533603
    535599
    537608
    539630
    541664
    543711
    545771
    547844
    549930
    552029
    554141
    556267
    558407
    560560
    562727
    564908
    567103
    569312
    571535
    573773
    576026
    578293
    580576
    582873
    585186
    587514
    589857
    592216
    594591
    596982
    599388
    601811
    604251
    606707
    609180
    611670
    614176
    616700
    619242
    621801
    624378
    626973
    629586
    632217
    634867
    637535
    640223
    642929
    645655
    648400
    651165
    653950
    656756
    659581
    662427
    665294
    668181
    671091
    674021
    676973
    679947
    682943
    685962
    689004
    692068
    695155
    698266
    701401
    704559
    707742
    710949
    714181
    717439
    720721
    724029
    727363
    730724
    734111
    737525
    740966
    744434
    747931
    751455
    755008
    758590
    762201
    765842
    769513
    773214
    776946
    780708
    784502
    788328
    792187
    796077
    800001
    803959
    807950
    811976
    816036
    820131
    824263
    828430
    832634
    836875
    841154
    845471
    849826
    854221
    858655
    863130
    867645
    872201
    876800
    881441
    886125
    890852
    895624
    900441
    905303
    910211
    915166
    920169
    925220
    930320
    935469
    940669
    945920
    951223
    956578
    961987
    967450
    972968
    978542
    984173
    989861
    995608
    1.00141e+06
    1.00728e+06
    1.01321e+06
    1.0192e+06
    1.02525e+06
    1.03137e+06
    1.03755e+06
    1.0438e+06
    1.05012e+06
    1.05651e+06
    1.06296e+06
    1.06949e+06
    1.07609e+06
    1.08276e+06
    1.08951e+06
    1.09633e+06
    1.10323e+06
    1.11021e+06
    1.11726e+06
    1.1244e+06
    1.13162e+06
    1.13893e+06
    1.14632e+06
    1.1538e+06
    1.16137e+06
    1.16902e+06
    1.17677e+06
    1.18462e+06
    1.19256e+06
    1.20059e+06
    1.20873e+06
    1.21696e+06
    1.2253e+06
    1.23374e+06
    1.24229e+06
    1.25095e+06
    1.25972e+06
    1.2686e+06
    1.2776e+06
    1.28672e+06
    1.29595e+06
    1.30531e+06
    1.3148e+06
    1.32441e+06
    1.33415e+06
    1.34402e+06
    1.35403e+06
    1.36418e+06
    1.37447e+06
    1.38491e+06
    1.39549e+06
    1.40622e+06
    1.41711e+06
    1.42816e+06
    1.43936e+06
    1.45073e+06
    1.46227e+06
    1.47399e+06
    1.48588e+06
    1.49794e+06
    1.5102e+06
    1.52264e+06
    1.53528e+06
    1.54812e+06
    1.56115e+06
    1.5744e+06
    1.58786e+06
    1.60154e+06
    1.61544e+06
    1.62957e+06
    1.64394e+06
    1.65855e+06
    1.67341e+06
    1.68852e+06
    1.7039e+06
    1.71954e+06
    1.73546e+06
    1.75166e+06
    1.76815e+06
    1.78494e+06
    1.80204e+06
    1.81946e+06
    1.8372e+06
    1.85527e+06
    1.87369e+06
    1.89247e+06
    1.91161e+06
    1.93113e+06
    1.95103e+06
    1.97134e+06
    1.99206e+06
    2.0132e+06
    2.03479e+06
    2.05682e+06
    2.07933e+06
    2.10232e+06
    2.12581e+06
    2.14982e+06
    2.17436e+06
    2.19946e+06
    2.22513e+06
    2.2514e+06
    2.27828e+06
    2.3058e+06
    2.33398e+06
    2.36284e+06
    2.39242e+06
    2.42274e+06
    2.45383e+06
    2.48572e+06
    2.51844e+06
    2.55202e+06
    2.58651e+06
    2.62194e+06
    2.65835e+06
    2.69578e+06
    2.73427e+06
    2.77389e+06
    2.81467e+06
    2.85667e+06
    2.89995e+06
    2.94456e+06
    2.99058e+06
    3.03808e+06
    3.08712e+06
    3.13779e+06
    3.19017e+06
    3.24435e+06
    3.30044e+06
    3.35853e+06
    3.41874e+06
    3.48119e+06
    3.54602e+06
    3.61336e+06
    3.68338e+06
    3.75623e+06
    3.8321e+06
    3.91119e+06
    3.99372e+06
    4.07991e+06
    4.17004e+06
    4.26438e+06
    4.36325e+06
    4.467e+06
    4.576e+06
    4.69068e+06
    4.81151e+06
    4.93901e+06
    5.07379e+06
    5.21649e+06
    5.36787e+06
    5.52876e+06
    5.70013e+06
    5.88307e+06
    6.07884e+06
    6.28889e+06
    6.5149e+06
    6.75881e+06
    7.02294e+06
    7.30999e+06
    7.62319e+06
    7.96644e+06
    8.34443e+06
    8.76293e+06
    9.22908e+06
    9.75181e+06
    1.03425e+07
    1.1016e+07
    1.17915e+07
    1.26953e+07
    1e-06
)

// *********************** vim: set ft=cpp et sw=4 : *********************** //
