FoamFile
{
    version         2.0;
    format          ascii;
    class           scalarAverageField;
    object          k;
    note            "From experimental data, scaled for Ubulk = 63 m/s";
}

// * * * * * * * * * * * * * * * * * * * * * * * * * * * * * * * * * * * * * //

// average
0

// data
(
    59.4954
    59.5042
    59.5131
    59.5221
    59.5312
    59.5404
    59.5497
    59.5592
    59.5687
    59.5784
    59.5881
    59.598
    59.608
    59.6181
    59.6283
    59.6386
    59.649
    59.6595
    59.6701
    59.6809
    59.6917
    59.7027
    59.7137
    59.7249
    59.7362
    59.7476
    59.7591
    59.7707
    59.7824
    59.7942
    59.8061
    59.8182
    59.8303
    59.8426
    59.855
    59.8674
    59.88
    59.8927
    59.9055
    59.9184
    59.9314
    59.9446
    59.9578
    59.9712
    59.9846
    59.9982
    60.0119
    60.0257
    60.0395
    60.0536
    60.0677
    60.0819
    60.0962
    60.1107
    60.1252
    60.1399
    60.1547
    60.1695
    60.1845
    60.1996
    60.2148
    60.2302
    60.2456
    60.2611
    60.2768
    60.2926
    60.3084
    60.3244
    60.3405
    60.3567
    60.373
    60.3894
    60.406
    60.4226
    60.4394
    60.4562
    60.4732
    60.4903
    60.5075
    60.5248
    60.5422
    60.5598
    60.5774
    60.5952
    60.613
    60.631
    60.6491
    60.6673
    60.6856
    60.704
    60.7225
    60.7412
    60.7599
    60.7788
    60.7977
    60.8168
    60.836
    60.8553
    60.8748
    60.8943
    60.9139
    60.9337
    60.9536
    60.9735
    60.9936
    61.0138
    61.0342
    61.0546
    61.0751
    61.0958
    61.1165
    61.1374
    61.1584
    61.1795
    61.2007
    61.222
    61.2435
    61.265
    61.2867
    61.3085
    61.3304
    61.3524
    61.3745
    61.3967
    61.4191
    61.4415
    61.4641
    61.4868
    61.5096
    61.5325
    61.5555
    61.5786
    61.6019
    61.6253
    61.6487
    61.6723
    61.696
    61.7198
    61.7438
    61.7678
    61.792
    61.8163
    61.8406
    61.8652
    61.8898
    61.9145
    61.9393
    61.9643
    61.9894
    62.0146
    62.0399
    62.0653
    62.0908
    62.1165
    62.1422
    62.1681
    62.1941
    62.2202
    62.2465
    62.2728
    62.2993
    62.3258
    62.3525
    62.3793
    62.4062
    62.4333
    62.4604
    62.4877
    62.5151
    62.5426
    62.5702
    62.5979
    62.6258
    62.6537
    62.6818
    62.71
    62.7383
    62.7667
    62.7953
    62.8239
    62.8527
    62.8816
    62.9106
    62.9398
    62.969
    62.9984
    63.0279
    63.0575
    63.0872
    63.117
    63.147
    63.177
    63.2072
    63.2375
    63.268
    63.2985
    63.3292
    63.3599
    63.3908
    63.4219
    63.453
    63.4842
    63.5156
    63.5471
    63.5787
    63.6104
    63.6423
    63.6742
    63.7063
    63.7385
    63.7709
    63.8033
    63.8359
    63.8685
    63.9013
    63.9343
    63.9673
    64.0005
    64.0337
    64.0671
    64.1007
    64.1343
    64.1681
    64.2019
    64.2359
    64.2701
    64.3043
    64.3387
    64.3732
    64.4078
    64.4425
    64.4773
    64.5123
    64.5474
    64.5826
    64.6179
    64.6534
    64.689
    64.7247
    64.7605
    64.7964
    64.8325
    64.8687
    64.905
    64.9414
    64.978
    65.0146
    65.0514
    65.0884
    65.1254
    65.1626
    65.1999
    65.2373
    65.2748
    65.3125
    65.3502
    65.3881
    65.4262
    65.4643
    65.5026
    65.541
    65.5795
    65.6182
    65.657
    65.6958
    65.7349
    65.774
    65.8133
    65.8527
    65.8922
    65.9318
    65.9716
    66.0115
    66.0515
    66.0917
    66.1319
    66.1723
    66.2129
    66.2535
    66.2943
    66.3352
    66.3762
    66.4174
    66.4586
    66.5
    66.5416
    66.5832
    66.625
    66.6669
    66.7089
    66.7511
    66.7934
    66.8358
    66.8784
    66.921
    66.9638
    67.0068
    67.0498
    67.093
    67.1363
    67.1798
    67.2233
    67.267
    67.3108
    67.3548
    67.3989
    67.4431
    67.4874
    67.5319
    67.5765
    67.6212
    67.6661
    67.711
    67.7562
    67.8014
    67.8468
    67.8923
    67.9379
    67.9837
    68.0296
    68.0756
    68.1217
    68.168
    68.2144
    68.261
    68.3077
    68.3545
    68.4014
    68.4485
    68.4957
    68.543
    68.5905
    68.6381
    68.6858
    68.7337
    68.7817
    68.8298
    68.878
    68.9264
    68.975
    69.0236
    69.0724
    69.1213
    69.1704
    69.2196
    69.2689
    69.3183
    69.3679
    69.4176
    69.4675
    69.5175
    69.5676
    69.6179
    69.6682
    69.7188
    69.7694
    69.8202
    69.8712
    69.9222
    69.9734
    70.0248
    70.0762
    70.1278
    70.1796
    70.2314
    70.2835
    70.3356
    70.3879
    70.4403
    70.4929
    70.5456
    70.5984
    70.6514
    70.7045
    70.7577
    70.8111
    70.8646
    70.9183
    70.972
    71.026
    71.08
    71.1342
    71.1886
    71.2431
    71.2977
    71.3524
    71.4073
    71.4624
    71.5175
    71.5729
    71.6283
    71.6839
    71.7396
    71.7955
    71.8515
    71.9077
    71.9639
    72.0204
    72.0769
    72.1337
    72.1905
    72.2475
    72.3046
    72.3619
    72.4193
    72.4769
    72.5346
    72.5924
    72.6504
    72.7085
    72.7668
    72.8252
    72.8837
    72.9424
    73.0013
    73.0602
    73.1194
    73.1786
    73.238
    73.2976
    73.3573
    73.4171
    73.4771
    73.5372
    73.5975
    73.6579
    73.7184
    73.7791
    73.84
    73.901
    73.9621
    74.0234
    74.0848
    74.1464
    74.2081
    74.2699
    74.3319
    74.3941
    74.4564
    74.5188
    74.5814
    74.6442
    74.707
    74.7701
    74.8333
    74.8966
    74.9601
    75.0237
    75.0874
    75.1514
    75.2154
    75.2796
    75.344
    75.4085
    75.4731
    75.538
    75.6029
    75.668
    75.7333
    75.7987
    75.8642
    75.9299
    75.9958
    76.0618
    76.1279
    76.1942
    76.2607
    76.3273
    76.394
    76.4609
    76.528
    76.5952
    76.6625
    76.73
    76.7977
    76.8655
    76.9335
    77.0016
    77.0698
    77.1383
    77.2068
    77.2756
    77.3444
    77.4135
    77.4827
    77.552
    77.6215
    77.6911
    77.7609
    77.8309
    77.901
    77.9713
    78.0417
    78.1122
    78.183
    78.2538
    78.3249
    78.3961
    78.4674
    78.5389
    78.6106
    78.6824
    78.7544
    78.8265
    78.8988
    78.9712
    79.0438
    79.1166
    79.1895
    79.2626
    79.3358
    79.4092
    79.4827
    79.5564
    79.6303
    79.7043
    79.7785
    79.8528
    79.9273
    80.002
    80.0768
    80.1518
    80.2269
    80.3022
    80.3777
    80.4533
    80.529
    80.605
    80.6811
    80.7573
    80.8338
    80.9103
    80.9871
    81.064
    81.141
    81.2183
    81.2957
    81.3732
    81.4509
    81.5288
    81.6068
    81.685
    81.7634
    81.8419
    81.9206
    81.9995
    82.0785
    82.1577
    82.237
    82.3166
    82.3962
    82.4761
    82.5561
    82.6363
    82.7166
    82.7971
    82.8778
    82.9586
    83.0396
    83.1208
    83.2021
    83.2836
    83.3653
    83.4471
    83.5291
    83.6113
    83.6937
    83.7762
    83.8588
    83.9417
    84.0247
    84.1079
    84.1912
    84.2748
    84.3584
    84.4423
    84.5263
    84.6105
    84.6949
    84.7794
    84.8641
    84.949
    85.0341
    85.1193
    85.2047
    85.2902
    85.376
    85.4619
    85.548
    85.6342
    85.7206
    85.8072
    85.894
    85.9809
    86.0681
    86.1553
    86.2428
    86.3304
    86.4182
    86.5062
    86.5944
    86.6827
    86.7712
    86.8599
    86.9488
    87.0378
    87.127
    87.2164
    87.3059
    87.3957
    87.4856
    87.5757
    87.6659
    87.7564
    87.847
    87.9378
    88.0287
    88.1199
    88.2112
    88.3027
    88.3944
    88.4863
    88.5783
    88.6705
    88.7629
    88.8555
    88.9483
    89.0412
    89.1343
    89.2276
    89.3211
    89.4148
    89.5086
    89.6026
    89.6968
    89.7912
    89.8858
    89.9805
    90.0754
    90.1706
    90.2658
    90.3613
    90.457
    90.5528
    90.6488
    90.7451
    90.8414
    90.938
    91.0348
    91.1317
    91.2289
    91.3262
    91.4237
    91.5213
    91.6192
    91.7173
    91.8155
    91.9139
    92.0126
    92.1113
    92.2103
    92.3095
    92.4089
    92.5084
    92.6081
    92.7081
    92.8082
    92.9085
    93.009
    93.1096
    93.2105
    93.3116
    93.4128
    93.5142
    93.6159
    93.7177
    93.8197
    93.9219
    94.0242
    94.1268
    94.2296
    94.3325
    94.4357
    94.539
    94.6425
    94.7463
    94.8502
    94.9543
    95.0586
    95.1631
    95.2678
    95.3727
    95.4777
    95.583
    95.6885
    95.7941
    95.9
    96.006
    96.1122
    96.2187
    96.3253
    96.4321
    96.5392
    96.6464
    96.7538
    96.8614
    96.9692
    97.0772
    97.1854
    97.2938
    97.4024
    97.5112
    97.6202
    97.7294
    97.8388
    97.9484
    98.0582
    98.1682
    98.2784
    98.3888
    98.4993
    98.6101
    98.7211
    98.8323
    98.9437
    99.0553
    99.1671
    99.2791
    99.3913
    99.5037
    99.6163
    99.7291
    99.8421
    99.9553
    100.069
    100.182
    100.296
    100.41
    100.524
    100.639
    100.754
    100.868
    100.983
    101.099
    101.214
    101.33
    101.446
    101.562
    101.678
    101.795
    101.911
    102.028
    102.145
    102.263
    102.38
    102.498
    102.616
    102.734
    102.852
    102.971
    103.09
    103.209
    103.328
    103.447
    103.567
    103.687
    103.807
    103.927
    104.048
    104.168
    104.289
    104.41
    104.532
    104.653
    104.775
    104.897
    105.019
    105.141
    105.264
    105.387
    105.51
    105.633
    105.757
    105.88
    106.004
    106.128
    106.253
    106.377
    106.502
    106.627
    106.752
    106.877
    107.003
    107.129
    107.255
    107.381
    107.508
    107.634
    107.761
    107.889
    108.016
    108.143
    108.271
    108.399
    108.528
    108.656
    108.785
    108.914
    109.043
    109.172
    109.302
    109.432
    109.562
    109.692
    109.822
    109.953
    110.084
    110.215
    110.346
    110.478
    110.61
    110.742
    110.874
    111.007
    111.139
    111.272
    111.406
    111.539
    111.673
    111.806
    111.941
    112.075
    112.209
    112.344
    112.479
    112.614
    112.75
    112.886
    113.021
    113.158
    113.294
    113.431
    113.567
    113.704
    113.842
    113.979
    114.117
    114.255
    114.393
    114.532
    114.67
    114.809
    114.948
    115.088
    115.227
    115.367
    115.507
    115.648
    115.788
    115.929
    116.07
    116.211
    116.353
    116.495
    116.637
    116.779
    116.921
    117.064
    117.207
    117.35
    117.493
    117.637
    117.781
    117.925
    118.069
    118.214
    118.359
    118.504
    118.649
    118.795
    118.941
    119.087
    119.233
    119.379
    119.526
    119.673
    119.82
    119.968
    120.116
    120.264
    120.412
    120.56
    120.709
    120.858
    121.007
    121.157
    121.306
    121.456
    121.607
    121.757
    121.908
    122.059
    122.21
    122.361
    122.513
    122.665
    122.817
    122.969
    123.122
    123.275
    123.428
    123.581
    123.735
    123.889
    124.043
    124.198
    124.352
    124.507
    124.662
    124.818
    124.973
    125.129
    125.286
    125.442
    125.599
    125.756
    125.913
    126.07
    126.228
    126.386
    126.544
    126.703
    126.861
    127.02
    127.18
    127.339
    127.499
    127.659
    127.819
    127.98
    128.14
    128.301
    128.463
    128.624
    128.786
    128.948
    129.11
    129.273
    129.436
    129.599
    129.762
    129.926
    130.09
    130.254
    130.419
    130.583
    130.748
    130.913
    131.079
    131.245
    131.411
    131.577
    131.743
    131.91
    132.077
    132.245
    132.412
    132.58
    132.748
    132.917
    133.085
    133.254
    133.423
    133.593
    133.763
    133.933
    134.103
    134.274
    134.444
    134.615
    134.787
    134.958
    135.13
    135.302
    135.475
    135.648
    135.821
    135.994
    136.167
    136.341
    136.515
    136.69
    136.864
    137.039
    137.214
    137.39
    137.566
    137.742
    137.918
    0
    59.4954
    59.5042
    59.5131
    59.5221
    59.5312
    59.5404
    59.5497
    59.5592
    59.5687
    59.5784
    59.5881
    59.598
    59.608
    59.6181
    59.6283
    59.6386
    59.649
    59.6595
    59.6701
    59.6809
    59.6917
    59.7027
    59.7137
    59.7249
    59.7362
    59.7476
    59.7591
    59.7707
    59.7824
    59.7942
    59.8061
    59.8182
    59.8303
    59.8426
    59.855
    59.8674
    59.88
    59.8927
    59.9055
    59.9184
    59.9314
    59.9446
    59.9578
    59.9712
    59.9846
    59.9982
    60.0119
    60.0257
    60.0395
    60.0536
    60.0677
    60.0819
    60.0962
    60.1107
    60.1252
    60.1399
    60.1547
    60.1695
    60.1845
    60.1996
    60.2148
    60.2302
    60.2456
    60.2611
    60.2768
    60.2926
    60.3084
    60.3244
    60.3405
    60.3567
    60.373
    60.3894
    60.406
    60.4226
    60.4394
    60.4562
    60.4732
    60.4903
    60.5075
    60.5248
    60.5422
    60.5598
    60.5774
    60.5952
    60.613
    60.631
    60.6491
    60.6673
    60.6856
    60.704
    60.7225
    60.7412
    60.7599
    60.7788
    60.7977
    60.8168
    60.836
    60.8553
    60.8748
    60.8943
    60.9139
    60.9337
    60.9536
    60.9735
    60.9936
    61.0138
    61.0342
    61.0546
    61.0751
    61.0958
    61.1165
    61.1374
    61.1584
    61.1795
    61.2007
    61.222
    61.2435
    61.265
    61.2867
    61.3085
    61.3304
    61.3524
    61.3745
    61.3967
    61.4191
    61.4415
    61.4641
    61.4868
    61.5096
    61.5325
    61.5555
    61.5786
    61.6019
    61.6253
    61.6487
    61.6723
    61.696
    61.7198
    61.7438
    61.7678
    61.792
    61.8163
    61.8406
    61.8652
    61.8898
    61.9145
    61.9393
    61.9643
    61.9894
    62.0146
    62.0399
    62.0653
    62.0908
    62.1165
    62.1422
    62.1681
    62.1941
    62.2202
    62.2465
    62.2728
    62.2993
    62.3258
    62.3525
    62.3793
    62.4062
    62.4333
    62.4604
    62.4877
    62.5151
    62.5426
    62.5702
    62.5979
    62.6258
    62.6537
    62.6818
    62.71
    62.7383
    62.7667
    62.7953
    62.8239
    62.8527
    62.8816
    62.9106
    62.9398
    62.969
    62.9984
    63.0279
    63.0575
    63.0872
    63.117
    63.147
    63.177
    63.2072
    63.2375
    63.268
    63.2985
    63.3292
    63.3599
    63.3908
    63.4219
    63.453
    63.4842
    63.5156
    63.5471
    63.5787
    63.6104
    63.6423
    63.6742
    63.7063
    63.7385
    63.7709
    63.8033
    63.8359
    63.8685
    63.9013
    63.9343
    63.9673
    64.0005
    64.0337
    64.0671
    64.1007
    64.1343
    64.1681
    64.2019
    64.2359
    64.2701
    64.3043
    64.3387
    64.3732
    64.4078
    64.4425
    64.4773
    64.5123
    64.5474
    64.5826
    64.6179
    64.6534
    64.689
    64.7247
    64.7605
    64.7964
    64.8325
    64.8687
    64.905
    64.9414
    64.978
    65.0146
    65.0514
    65.0884
    65.1254
    65.1626
    65.1999
    65.2373
    65.2748
    65.3125
    65.3502
    65.3881
    65.4262
    65.4643
    65.5026
    65.541
    65.5795
    65.6182
    65.657
    65.6958
    65.7349
    65.774
    65.8133
    65.8527
    65.8922
    65.9318
    65.9716
    66.0115
    66.0515
    66.0917
    66.1319
    66.1723
    66.2129
    66.2535
    66.2943
    66.3352
    66.3762
    66.4174
    66.4586
    66.5
    66.5416
    66.5832
    66.625
    66.6669
    66.7089
    66.7511
    66.7934
    66.8358
    66.8784
    66.921
    66.9638
    67.0068
    67.0498
    67.093
    67.1363
    67.1798
    67.2233
    67.267
    67.3108
    67.3548
    67.3989
    67.4431
    67.4874
    67.5319
    67.5765
    67.6212
    67.6661
    67.711
    67.7562
    67.8014
    67.8468
    67.8923
    67.9379
    67.9837
    68.0296
    68.0756
    68.1217
    68.168
    68.2144
    68.261
    68.3077
    68.3545
    68.4014
    68.4485
    68.4957
    68.543
    68.5905
    68.6381
    68.6858
    68.7337
    68.7817
    68.8298
    68.878
    68.9264
    68.975
    69.0236
    69.0724
    69.1213
    69.1704
    69.2196
    69.2689
    69.3183
    69.3679
    69.4176
    69.4675
    69.5175
    69.5676
    69.6179
    69.6682
    69.7188
    69.7694
    69.8202
    69.8712
    69.9222
    69.9734
    70.0248
    70.0762
    70.1278
    70.1796
    70.2314
    70.2835
    70.3356
    70.3879
    70.4403
    70.4929
    70.5456
    70.5984
    70.6514
    70.7045
    70.7577
    70.8111
    70.8646
    70.9183
    70.972
    71.026
    71.08
    71.1342
    71.1886
    71.2431
    71.2977
    71.3524
    71.4073
    71.4624
    71.5175
    71.5729
    71.6283
    71.6839
    71.7396
    71.7955
    71.8515
    71.9077
    71.9639
    72.0204
    72.0769
    72.1337
    72.1905
    72.2475
    72.3046
    72.3619
    72.4193
    72.4769
    72.5346
    72.5924
    72.6504
    72.7085
    72.7668
    72.8252
    72.8837
    72.9424
    73.0013
    73.0602
    73.1194
    73.1786
    73.238
    73.2976
    73.3573
    73.4171
    73.4771
    73.5372
    73.5975
    73.6579
    73.7184
    73.7791
    73.84
    73.901
    73.9621
    74.0234
    74.0848
    74.1464
    74.2081
    74.2699
    74.3319
    74.3941
    74.4564
    74.5188
    74.5814
    74.6442
    74.707
    74.7701
    74.8333
    74.8966
    74.9601
    75.0237
    75.0874
    75.1514
    75.2154
    75.2796
    75.344
    75.4085
    75.4731
    75.538
    75.6029
    75.668
    75.7333
    75.7987
    75.8642
    75.9299
    75.9958
    76.0618
    76.1279
    76.1942
    76.2607
    76.3273
    76.394
    76.4609
    76.528
    76.5952
    76.6625
    76.73
    76.7977
    76.8655
    76.9335
    77.0016
    77.0698
    77.1383
    77.2068
    77.2756
    77.3444
    77.4135
    77.4827
    77.552
    77.6215
    77.6911
    77.7609
    77.8309
    77.901
    77.9713
    78.0417
    78.1122
    78.183
    78.2538
    78.3249
    78.3961
    78.4674
    78.5389
    78.6106
    78.6824
    78.7544
    78.8265
    78.8988
    78.9712
    79.0438
    79.1166
    79.1895
    79.2626
    79.3358
    79.4092
    79.4827
    79.5564
    79.6303
    79.7043
    79.7785
    79.8528
    79.9273
    80.002
    80.0768
    80.1518
    80.2269
    80.3022
    80.3777
    80.4533
    80.529
    80.605
    80.6811
    80.7573
    80.8338
    80.9103
    80.9871
    81.064
    81.141
    81.2183
    81.2957
    81.3732
    81.4509
    81.5288
    81.6068
    81.685
    81.7634
    81.8419
    81.9206
    81.9995
    82.0785
    82.1577
    82.237
    82.3166
    82.3962
    82.4761
    82.5561
    82.6363
    82.7166
    82.7971
    82.8778
    82.9586
    83.0396
    83.1208
    83.2021
    83.2836
    83.3653
    83.4471
    83.5291
    83.6113
    83.6937
    83.7762
    83.8588
    83.9417
    84.0247
    84.1079
    84.1912
    84.2748
    84.3584
    84.4423
    84.5263
    84.6105
    84.6949
    84.7794
    84.8641
    84.949
    85.0341
    85.1193
    85.2047
    85.2902
    85.376
    85.4619
    85.548
    85.6342
    85.7206
    85.8072
    85.894
    85.9809
    86.0681
    86.1553
    86.2428
    86.3304
    86.4182
    86.5062
    86.5944
    86.6827
    86.7712
    86.8599
    86.9488
    87.0378
    87.127
    87.2164
    87.3059
    87.3957
    87.4856
    87.5757
    87.6659
    87.7564
    87.847
    87.9378
    88.0287
    88.1199
    88.2112
    88.3027
    88.3944
    88.4863
    88.5783
    88.6705
    88.7629
    88.8555
    88.9483
    89.0412
    89.1343
    89.2276
    89.3211
    89.4148
    89.5086
    89.6026
    89.6968
    89.7912
    89.8858
    89.9805
    90.0754
    90.1706
    90.2658
    90.3613
    90.457
    90.5528
    90.6488
    90.7451
    90.8414
    90.938
    91.0348
    91.1317
    91.2289
    91.3262
    91.4237
    91.5213
    91.6192
    91.7173
    91.8155
    91.9139
    92.0126
    92.1113
    92.2103
    92.3095
    92.4089
    92.5084
    92.6081
    92.7081
    92.8082
    92.9085
    93.009
    93.1096
    93.2105
    93.3116
    93.4128
    93.5142
    93.6159
    93.7177
    93.8197
    93.9219
    94.0242
    94.1268
    94.2296
    94.3325
    94.4357
    94.539
    94.6425
    94.7463
    94.8502
    94.9543
    95.0586
    95.1631
    95.2678
    95.3727
    95.4777
    95.583
    95.6885
    95.7941
    95.9
    96.006
    96.1122
    96.2187
    96.3253
    96.4321
    96.5392
    96.6464
    96.7538
    96.8614
    96.9692
    97.0772
    97.1854
    97.2938
    97.4024
    97.5112
    97.6202
    97.7294
    97.8388
    97.9484
    98.0582
    98.1682
    98.2784
    98.3888
    98.4993
    98.6101
    98.7211
    98.8323
    98.9437
    99.0553
    99.1671
    99.2791
    99.3913
    99.5037
    99.6163
    99.7291
    99.8421
    99.9553
    100.069
    100.182
    100.296
    100.41
    100.524
    100.639
    100.754
    100.868
    100.983
    101.099
    101.214
    101.33
    101.446
    101.562
    101.678
    101.795
    101.911
    102.028
    102.145
    102.263
    102.38
    102.498
    102.616
    102.734
    102.852
    102.971
    103.09
    103.209
    103.328
    103.447
    103.567
    103.687
    103.807
    103.927
    104.048
    104.168
    104.289
    104.41
    104.532
    104.653
    104.775
    104.897
    105.019
    105.141
    105.264
    105.387
    105.51
    105.633
    105.757
    105.88
    106.004
    106.128
    106.253
    106.377
    106.502
    106.627
    106.752
    106.877
    107.003
    107.129
    107.255
    107.381
    107.508
    107.634
    107.761
    107.889
    108.016
    108.143
    108.271
    108.399
    108.528
    108.656
    108.785
    108.914
    109.043
    109.172
    109.302
    109.432
    109.562
    109.692
    109.822
    109.953
    110.084
    110.215
    110.346
    110.478
    110.61
    110.742
    110.874
    111.007
    111.139
    111.272
    111.406
    111.539
    111.673
    111.806
    111.941
    112.075
    112.209
    112.344
    112.479
    112.614
    112.75
    112.886
    113.021
    113.158
    113.294
    113.431
    113.567
    113.704
    113.842
    113.979
    114.117
    114.255
    114.393
    114.532
    114.67
    114.809
    114.948
    115.088
    115.227
    115.367
    115.507
    115.648
    115.788
    115.929
    116.07
    116.211
    116.353
    116.495
    116.637
    116.779
    116.921
    117.064
    117.207
    117.35
    117.493
    117.637
    117.781
    117.925
    118.069
    118.214
    118.359
    118.504
    118.649
    118.795
    118.941
    119.087
    119.233
    119.379
    119.526
    119.673
    119.82
    119.968
    120.116
    120.264
    120.412
    120.56
    120.709
    120.858
    121.007
    121.157
    121.306
    121.456
    121.607
    121.757
    121.908
    122.059
    122.21
    122.361
    122.513
    122.665
    122.817
    122.969
    123.122
    123.275
    123.428
    123.581
    123.735
    123.889
    124.043
    124.198
    124.352
    124.507
    124.662
    124.818
    124.973
    125.129
    125.286
    125.442
    125.599
    125.756
    125.913
    126.07
    126.228
    126.386
    126.544
    126.703
    126.861
    127.02
    127.18
    127.339
    127.499
    127.659
    127.819
    127.98
    128.14
    128.301
    128.463
    128.624
    128.786
    128.948
    129.11
    129.273
    129.436
    129.599
    129.762
    129.926
    130.09
    130.254
    130.419
    130.583
    130.748
    130.913
    131.079
    131.245
    131.411
    131.577
    131.743
    131.91
    132.077
    132.245
    132.412
    132.58
    132.748
    132.917
    133.085
    133.254
    133.423
    133.593
    133.763
    133.933
    134.103
    134.274
    134.444
    134.615
    134.787
    134.958
    135.13
    135.302
    135.475
    135.648
    135.821
    135.994
    136.167
    136.341
    136.515
    136.69
    136.864
    137.039
    137.214
    137.39
    137.566
    137.742
    137.918
    0
)

// *********************** vim: set ft=cpp et sw=4 : *********************** //
